
---------- Begin Simulation Statistics ----------
sim_seconds                                  0.111724                       # Number of seconds simulated
sim_ticks                                111723609500                       # Number of ticks simulated
final_tick                               111723609500                       # Number of ticks from beginning of simulation (restored from checkpoints and never reset)
sim_freq                                 1000000000000                       # Frequency of simulated ticks
host_inst_rate                                 991939                       # Simulator instruction rate (inst/s)
host_op_rate                                  1054534                       # Simulator op (including micro ops) rate (op/s)
host_tick_rate                             2537046620                       # Simulator tick rate (ticks/s)
host_mem_usage                                 658816                       # Number of bytes of host memory used
host_seconds                                    44.04                       # Real time elapsed on the host
sim_insts                                    43681713                       # Number of instructions simulated
sim_ops                                      46438302                       # Number of ops (including micro ops) simulated
system.voltage_domain.voltage                       1                       # Voltage in Volts
system.clk_domain.clock                          1000                       # Clock period in ticks
system.mem_ctrls.pwrStateResidencyTicks::UNDEFINED 111723609500                       # Cumulative time (in ticks) in various power states
system.mem_ctrls.bytes_read::cpu.inst          122624                       # Number of bytes read from this memory
system.mem_ctrls.bytes_read::cpu.data         4991264                       # Number of bytes read from this memory
system.mem_ctrls.bytes_read::total            5113888                       # Number of bytes read from this memory
system.mem_ctrls.bytes_inst_read::cpu.inst       122624                       # Number of instructions bytes read from this memory
system.mem_ctrls.bytes_inst_read::total        122624                       # Number of instructions bytes read from this memory
system.mem_ctrls.bytes_written::writebacks       326400                       # Number of bytes written to this memory
system.mem_ctrls.bytes_written::total          326400                       # Number of bytes written to this memory
system.mem_ctrls.num_reads::cpu.inst             7664                       # Number of read requests responded to by this memory
system.mem_ctrls.num_reads::cpu.data           311954                       # Number of read requests responded to by this memory
system.mem_ctrls.num_reads::total              319618                       # Number of read requests responded to by this memory
system.mem_ctrls.num_writes::writebacks         20400                       # Number of write requests responded to by this memory
system.mem_ctrls.num_writes::total              20400                       # Number of write requests responded to by this memory
system.mem_ctrls.bw_read::cpu.inst            1097566                       # Total read bandwidth from this memory (bytes/s)
system.mem_ctrls.bw_read::cpu.data           44675105                       # Total read bandwidth from this memory (bytes/s)
system.mem_ctrls.bw_read::total              45772671                       # Total read bandwidth from this memory (bytes/s)
system.mem_ctrls.bw_inst_read::cpu.inst       1097566                       # Instruction read bandwidth from this memory (bytes/s)
system.mem_ctrls.bw_inst_read::total          1097566                       # Instruction read bandwidth from this memory (bytes/s)
system.mem_ctrls.bw_write::writebacks         2921495                       # Write bandwidth from this memory (bytes/s)
system.mem_ctrls.bw_write::total              2921495                       # Write bandwidth from this memory (bytes/s)
system.mem_ctrls.bw_total::writebacks         2921495                       # Total bandwidth to/from this memory (bytes/s)
system.mem_ctrls.bw_total::cpu.inst           1097566                       # Total bandwidth to/from this memory (bytes/s)
system.mem_ctrls.bw_total::cpu.data          44675105                       # Total bandwidth to/from this memory (bytes/s)
system.mem_ctrls.bw_total::total             48694166                       # Total bandwidth to/from this memory (bytes/s)
system.mem_ctrls.readReqs                      319618                       # Number of read requests accepted
system.mem_ctrls.writeReqs                      20400                       # Number of write requests accepted
system.mem_ctrls.readBursts                    319618                       # Number of DRAM read bursts, including those serviced by the write queue
system.mem_ctrls.writeBursts                    20400                       # Number of DRAM write bursts, including those merged in the write queue
system.mem_ctrls.bytesReadDRAM               20290560                       # Total number of bytes read from DRAM
system.mem_ctrls.bytesReadWrQ                  164992                       # Total number of bytes read from write queue
system.mem_ctrls.bytesWritten                  895872                       # Total number of bytes written to DRAM
system.mem_ctrls.bytesReadSys                 5113888                       # Total read bytes from the system interface side
system.mem_ctrls.bytesWrittenSys               326400                       # Total written bytes from the system interface side
system.mem_ctrls.servicedByWrQ                   2578                       # Number of DRAM read bursts serviced by the write queue
system.mem_ctrls.mergedWrBursts                  6373                       # Number of DRAM write bursts merged with an existing one
system.mem_ctrls.neitherReadNorWriteReqs            0                       # Number of requests that are neither read nor write
system.mem_ctrls.perBankRdBursts::0             58517                       # Per bank write bursts
system.mem_ctrls.perBankRdBursts::1             59856                       # Per bank write bursts
system.mem_ctrls.perBankRdBursts::2             21237                       # Per bank write bursts
system.mem_ctrls.perBankRdBursts::3               628                       # Per bank write bursts
system.mem_ctrls.perBankRdBursts::4               926                       # Per bank write bursts
system.mem_ctrls.perBankRdBursts::5              3835                       # Per bank write bursts
system.mem_ctrls.perBankRdBursts::6              7097                       # Per bank write bursts
system.mem_ctrls.perBankRdBursts::7             18742                       # Per bank write bursts
system.mem_ctrls.perBankRdBursts::8               868                       # Per bank write bursts
system.mem_ctrls.perBankRdBursts::9              1183                       # Per bank write bursts
system.mem_ctrls.perBankRdBursts::10               48                       # Per bank write bursts
system.mem_ctrls.perBankRdBursts::11              704                       # Per bank write bursts
system.mem_ctrls.perBankRdBursts::12              822                       # Per bank write bursts
system.mem_ctrls.perBankRdBursts::13            28402                       # Per bank write bursts
system.mem_ctrls.perBankRdBursts::14            56270                       # Per bank write bursts
system.mem_ctrls.perBankRdBursts::15            57905                       # Per bank write bursts
system.mem_ctrls.perBankWrBursts::0               265                       # Per bank write bursts
system.mem_ctrls.perBankWrBursts::1               261                       # Per bank write bursts
system.mem_ctrls.perBankWrBursts::2               461                       # Per bank write bursts
system.mem_ctrls.perBankWrBursts::3                13                       # Per bank write bursts
system.mem_ctrls.perBankWrBursts::4                23                       # Per bank write bursts
system.mem_ctrls.perBankWrBursts::5               241                       # Per bank write bursts
system.mem_ctrls.perBankWrBursts::6              2941                       # Per bank write bursts
system.mem_ctrls.perBankWrBursts::7              9007                       # Per bank write bursts
system.mem_ctrls.perBankWrBursts::8                 0                       # Per bank write bursts
system.mem_ctrls.perBankWrBursts::9                 0                       # Per bank write bursts
system.mem_ctrls.perBankWrBursts::10                0                       # Per bank write bursts
system.mem_ctrls.perBankWrBursts::11                0                       # Per bank write bursts
system.mem_ctrls.perBankWrBursts::12              119                       # Per bank write bursts
system.mem_ctrls.perBankWrBursts::13              217                       # Per bank write bursts
system.mem_ctrls.perBankWrBursts::14              224                       # Per bank write bursts
system.mem_ctrls.perBankWrBursts::15              226                       # Per bank write bursts
system.mem_ctrls.numRdRetry                         0                       # Number of times read queue was full causing retry
system.mem_ctrls.numWrRetry                         0                       # Number of times write queue was full causing retry
system.mem_ctrls.totGap                  111723531500                       # Total gap between requests
system.mem_ctrls.readPktSize::0                     0                       # Read request sizes (log2)
system.mem_ctrls.readPktSize::1                     0                       # Read request sizes (log2)
system.mem_ctrls.readPktSize::2                     0                       # Read request sizes (log2)
system.mem_ctrls.readPktSize::3                     0                       # Read request sizes (log2)
system.mem_ctrls.readPktSize::4                319618                       # Read request sizes (log2)
system.mem_ctrls.readPktSize::5                     0                       # Read request sizes (log2)
system.mem_ctrls.readPktSize::6                     0                       # Read request sizes (log2)
system.mem_ctrls.writePktSize::0                    0                       # Write request sizes (log2)
system.mem_ctrls.writePktSize::1                    0                       # Write request sizes (log2)
system.mem_ctrls.writePktSize::2                    0                       # Write request sizes (log2)
system.mem_ctrls.writePktSize::3                    0                       # Write request sizes (log2)
system.mem_ctrls.writePktSize::4                20400                       # Write request sizes (log2)
system.mem_ctrls.writePktSize::5                    0                       # Write request sizes (log2)
system.mem_ctrls.writePktSize::6                    0                       # Write request sizes (log2)
system.mem_ctrls.rdQLenPdf::0                  316966                       # What read queue length does an incoming req see
system.mem_ctrls.rdQLenPdf::1                      74                       # What read queue length does an incoming req see
system.mem_ctrls.rdQLenPdf::2                       0                       # What read queue length does an incoming req see
system.mem_ctrls.rdQLenPdf::3                       0                       # What read queue length does an incoming req see
system.mem_ctrls.rdQLenPdf::4                       0                       # What read queue length does an incoming req see
system.mem_ctrls.rdQLenPdf::5                       0                       # What read queue length does an incoming req see
system.mem_ctrls.rdQLenPdf::6                       0                       # What read queue length does an incoming req see
system.mem_ctrls.rdQLenPdf::7                       0                       # What read queue length does an incoming req see
system.mem_ctrls.rdQLenPdf::8                       0                       # What read queue length does an incoming req see
system.mem_ctrls.rdQLenPdf::9                       0                       # What read queue length does an incoming req see
system.mem_ctrls.rdQLenPdf::10                      0                       # What read queue length does an incoming req see
system.mem_ctrls.rdQLenPdf::11                      0                       # What read queue length does an incoming req see
system.mem_ctrls.rdQLenPdf::12                      0                       # What read queue length does an incoming req see
system.mem_ctrls.rdQLenPdf::13                      0                       # What read queue length does an incoming req see
system.mem_ctrls.rdQLenPdf::14                      0                       # What read queue length does an incoming req see
system.mem_ctrls.rdQLenPdf::15                      0                       # What read queue length does an incoming req see
system.mem_ctrls.rdQLenPdf::16                      0                       # What read queue length does an incoming req see
system.mem_ctrls.rdQLenPdf::17                      0                       # What read queue length does an incoming req see
system.mem_ctrls.rdQLenPdf::18                      0                       # What read queue length does an incoming req see
system.mem_ctrls.rdQLenPdf::19                      0                       # What read queue length does an incoming req see
system.mem_ctrls.rdQLenPdf::20                      0                       # What read queue length does an incoming req see
system.mem_ctrls.rdQLenPdf::21                      0                       # What read queue length does an incoming req see
system.mem_ctrls.rdQLenPdf::22                      0                       # What read queue length does an incoming req see
system.mem_ctrls.rdQLenPdf::23                      0                       # What read queue length does an incoming req see
system.mem_ctrls.rdQLenPdf::24                      0                       # What read queue length does an incoming req see
system.mem_ctrls.rdQLenPdf::25                      0                       # What read queue length does an incoming req see
system.mem_ctrls.rdQLenPdf::26                      0                       # What read queue length does an incoming req see
system.mem_ctrls.rdQLenPdf::27                      0                       # What read queue length does an incoming req see
system.mem_ctrls.rdQLenPdf::28                      0                       # What read queue length does an incoming req see
system.mem_ctrls.rdQLenPdf::29                      0                       # What read queue length does an incoming req see
system.mem_ctrls.rdQLenPdf::30                      0                       # What read queue length does an incoming req see
system.mem_ctrls.rdQLenPdf::31                      0                       # What read queue length does an incoming req see
system.mem_ctrls.wrQLenPdf::0                       1                       # What write queue length does an incoming req see
system.mem_ctrls.wrQLenPdf::1                       1                       # What write queue length does an incoming req see
system.mem_ctrls.wrQLenPdf::2                       1                       # What write queue length does an incoming req see
system.mem_ctrls.wrQLenPdf::3                       1                       # What write queue length does an incoming req see
system.mem_ctrls.wrQLenPdf::4                       1                       # What write queue length does an incoming req see
system.mem_ctrls.wrQLenPdf::5                       1                       # What write queue length does an incoming req see
system.mem_ctrls.wrQLenPdf::6                       1                       # What write queue length does an incoming req see
system.mem_ctrls.wrQLenPdf::7                       1                       # What write queue length does an incoming req see
system.mem_ctrls.wrQLenPdf::8                       1                       # What write queue length does an incoming req see
system.mem_ctrls.wrQLenPdf::9                       1                       # What write queue length does an incoming req see
system.mem_ctrls.wrQLenPdf::10                      1                       # What write queue length does an incoming req see
system.mem_ctrls.wrQLenPdf::11                      1                       # What write queue length does an incoming req see
system.mem_ctrls.wrQLenPdf::12                      1                       # What write queue length does an incoming req see
system.mem_ctrls.wrQLenPdf::13                      1                       # What write queue length does an incoming req see
system.mem_ctrls.wrQLenPdf::14                      1                       # What write queue length does an incoming req see
system.mem_ctrls.wrQLenPdf::15                    680                       # What write queue length does an incoming req see
system.mem_ctrls.wrQLenPdf::16                    689                       # What write queue length does an incoming req see
system.mem_ctrls.wrQLenPdf::17                    787                       # What write queue length does an incoming req see
system.mem_ctrls.wrQLenPdf::18                    791                       # What write queue length does an incoming req see
system.mem_ctrls.wrQLenPdf::19                    790                       # What write queue length does an incoming req see
system.mem_ctrls.wrQLenPdf::20                    790                       # What write queue length does an incoming req see
system.mem_ctrls.wrQLenPdf::21                    790                       # What write queue length does an incoming req see
system.mem_ctrls.wrQLenPdf::22                    790                       # What write queue length does an incoming req see
system.mem_ctrls.wrQLenPdf::23                    790                       # What write queue length does an incoming req see
system.mem_ctrls.wrQLenPdf::24                    790                       # What write queue length does an incoming req see
system.mem_ctrls.wrQLenPdf::25                    790                       # What write queue length does an incoming req see
system.mem_ctrls.wrQLenPdf::26                    793                       # What write queue length does an incoming req see
system.mem_ctrls.wrQLenPdf::27                    791                       # What write queue length does an incoming req see
system.mem_ctrls.wrQLenPdf::28                    790                       # What write queue length does an incoming req see
system.mem_ctrls.wrQLenPdf::29                    793                       # What write queue length does an incoming req see
system.mem_ctrls.wrQLenPdf::30                    790                       # What write queue length does an incoming req see
system.mem_ctrls.wrQLenPdf::31                    789                       # What write queue length does an incoming req see
system.mem_ctrls.wrQLenPdf::32                    789                       # What write queue length does an incoming req see
system.mem_ctrls.wrQLenPdf::33                      0                       # What write queue length does an incoming req see
system.mem_ctrls.wrQLenPdf::34                      0                       # What write queue length does an incoming req see
system.mem_ctrls.wrQLenPdf::35                      0                       # What write queue length does an incoming req see
system.mem_ctrls.wrQLenPdf::36                      0                       # What write queue length does an incoming req see
system.mem_ctrls.wrQLenPdf::37                      0                       # What write queue length does an incoming req see
system.mem_ctrls.wrQLenPdf::38                      0                       # What write queue length does an incoming req see
system.mem_ctrls.wrQLenPdf::39                      0                       # What write queue length does an incoming req see
system.mem_ctrls.wrQLenPdf::40                      0                       # What write queue length does an incoming req see
system.mem_ctrls.wrQLenPdf::41                      0                       # What write queue length does an incoming req see
system.mem_ctrls.wrQLenPdf::42                      0                       # What write queue length does an incoming req see
system.mem_ctrls.wrQLenPdf::43                      0                       # What write queue length does an incoming req see
system.mem_ctrls.wrQLenPdf::44                      0                       # What write queue length does an incoming req see
system.mem_ctrls.wrQLenPdf::45                      0                       # What write queue length does an incoming req see
system.mem_ctrls.wrQLenPdf::46                      0                       # What write queue length does an incoming req see
system.mem_ctrls.wrQLenPdf::47                      0                       # What write queue length does an incoming req see
system.mem_ctrls.wrQLenPdf::48                      0                       # What write queue length does an incoming req see
system.mem_ctrls.wrQLenPdf::49                      0                       # What write queue length does an incoming req see
system.mem_ctrls.wrQLenPdf::50                      0                       # What write queue length does an incoming req see
system.mem_ctrls.wrQLenPdf::51                      0                       # What write queue length does an incoming req see
system.mem_ctrls.wrQLenPdf::52                      0                       # What write queue length does an incoming req see
system.mem_ctrls.wrQLenPdf::53                      0                       # What write queue length does an incoming req see
system.mem_ctrls.wrQLenPdf::54                      0                       # What write queue length does an incoming req see
system.mem_ctrls.wrQLenPdf::55                      0                       # What write queue length does an incoming req see
system.mem_ctrls.wrQLenPdf::56                      0                       # What write queue length does an incoming req see
system.mem_ctrls.wrQLenPdf::57                      0                       # What write queue length does an incoming req see
system.mem_ctrls.wrQLenPdf::58                      0                       # What write queue length does an incoming req see
system.mem_ctrls.wrQLenPdf::59                      0                       # What write queue length does an incoming req see
system.mem_ctrls.wrQLenPdf::60                      0                       # What write queue length does an incoming req see
system.mem_ctrls.wrQLenPdf::61                      0                       # What write queue length does an incoming req see
system.mem_ctrls.wrQLenPdf::62                      0                       # What write queue length does an incoming req see
system.mem_ctrls.wrQLenPdf::63                      0                       # What write queue length does an incoming req see
system.mem_ctrls.bytesPerActivate::samples        43433                       # Bytes accessed per row activation
system.mem_ctrls.bytesPerActivate::mean    487.760367                       # Bytes accessed per row activation
system.mem_ctrls.bytesPerActivate::gmean   297.261170                       # Bytes accessed per row activation
system.mem_ctrls.bytesPerActivate::stdev   391.959704                       # Bytes accessed per row activation
system.mem_ctrls.bytesPerActivate::0-127        11075     25.50%     25.50% # Bytes accessed per row activation
system.mem_ctrls.bytesPerActivate::128-255         6791     15.64%     41.13% # Bytes accessed per row activation
system.mem_ctrls.bytesPerActivate::256-383         3131      7.21%     48.34% # Bytes accessed per row activation
system.mem_ctrls.bytesPerActivate::384-511         2423      5.58%     53.92% # Bytes accessed per row activation
system.mem_ctrls.bytesPerActivate::512-639         3003      6.91%     60.84% # Bytes accessed per row activation
system.mem_ctrls.bytesPerActivate::640-767         2751      6.33%     67.17% # Bytes accessed per row activation
system.mem_ctrls.bytesPerActivate::768-895         1776      4.09%     71.26% # Bytes accessed per row activation
system.mem_ctrls.bytesPerActivate::896-1023         1135      2.61%     73.87% # Bytes accessed per row activation
system.mem_ctrls.bytesPerActivate::1024-1151        11348     26.13%    100.00% # Bytes accessed per row activation
system.mem_ctrls.bytesPerActivate::total        43433                       # Bytes accessed per row activation
system.mem_ctrls.rdPerTurnAround::samples          789                       # Reads before turning the bus around for writes
system.mem_ctrls.rdPerTurnAround::mean     400.699620                       # Reads before turning the bus around for writes
system.mem_ctrls.rdPerTurnAround::gmean    241.813641                       # Reads before turning the bus around for writes
system.mem_ctrls.rdPerTurnAround::stdev    420.497988                       # Reads before turning the bus around for writes
system.mem_ctrls.rdPerTurnAround::0-255           347     43.98%     43.98% # Reads before turning the bus around for writes
system.mem_ctrls.rdPerTurnAround::256-511          202     25.60%     69.58% # Reads before turning the bus around for writes
system.mem_ctrls.rdPerTurnAround::512-767          153     19.39%     88.97% # Reads before turning the bus around for writes
system.mem_ctrls.rdPerTurnAround::768-1023           44      5.58%     94.55% # Reads before turning the bus around for writes
system.mem_ctrls.rdPerTurnAround::1024-1279           10      1.27%     95.82% # Reads before turning the bus around for writes
system.mem_ctrls.rdPerTurnAround::1280-1535           11      1.39%     97.21% # Reads before turning the bus around for writes
system.mem_ctrls.rdPerTurnAround::1536-1791            8      1.01%     98.23% # Reads before turning the bus around for writes
system.mem_ctrls.rdPerTurnAround::1792-2047            6      0.76%     98.99% # Reads before turning the bus around for writes
system.mem_ctrls.rdPerTurnAround::2048-2303            3      0.38%     99.37% # Reads before turning the bus around for writes
system.mem_ctrls.rdPerTurnAround::2304-2559            2      0.25%     99.62% # Reads before turning the bus around for writes
system.mem_ctrls.rdPerTurnAround::2560-2815            1      0.13%     99.75% # Reads before turning the bus around for writes
system.mem_ctrls.rdPerTurnAround::2816-3071            1      0.13%     99.87% # Reads before turning the bus around for writes
system.mem_ctrls.rdPerTurnAround::4352-4607            1      0.13%    100.00% # Reads before turning the bus around for writes
system.mem_ctrls.rdPerTurnAround::total           789                       # Reads before turning the bus around for writes
system.mem_ctrls.wrPerTurnAround::samples          789                       # Writes before turning the bus around for reads
system.mem_ctrls.wrPerTurnAround::mean      17.741445                       # Writes before turning the bus around for reads
system.mem_ctrls.wrPerTurnAround::gmean     17.727440                       # Writes before turning the bus around for reads
system.mem_ctrls.wrPerTurnAround::stdev      0.686393                       # Writes before turning the bus around for reads
system.mem_ctrls.wrPerTurnAround::16              102     12.93%     12.93% # Writes before turning the bus around for reads
system.mem_ctrls.wrPerTurnAround::17                8      1.01%     13.94% # Writes before turning the bus around for reads
system.mem_ctrls.wrPerTurnAround::18              671     85.04%     98.99% # Writes before turning the bus around for reads
system.mem_ctrls.wrPerTurnAround::19                8      1.01%    100.00% # Writes before turning the bus around for reads
system.mem_ctrls.wrPerTurnAround::total           789                       # Writes before turning the bus around for reads
system.mem_ctrls.totQLat                   5238751250                       # Total ticks spent queuing
system.mem_ctrls.totMemAccLat             11183251250                       # Total ticks spent from burst creation until serviced by the DRAM
system.mem_ctrls.totBusLat                 1585200000                       # Total ticks spent in databus transfers
system.mem_ctrls.avgQLat                     16523.94                       # Average queueing delay per DRAM burst
system.mem_ctrls.avgBusLat                    5000.00                       # Average bus latency per DRAM burst
system.mem_ctrls.avgMemAccLat                35273.94                       # Average memory access latency per DRAM burst
system.mem_ctrls.avgRdBW                       181.61                       # Average DRAM read bandwidth in MiByte/s
system.mem_ctrls.avgWrBW                         8.02                       # Average achieved write bandwidth in MiByte/s
system.mem_ctrls.avgRdBWSys                     45.77                       # Average system read bandwidth in MiByte/s
system.mem_ctrls.avgWrBWSys                      2.92                       # Average system write bandwidth in MiByte/s
system.mem_ctrls.peakBW                      12800.00                       # Theoretical peak bandwidth in MiByte/s
system.mem_ctrls.busUtil                         1.48                       # Data bus utilization in percentage
system.mem_ctrls.busUtilRead                     1.42                       # Data bus utilization in percentage for reads
system.mem_ctrls.busUtilWrite                    0.06                       # Data bus utilization in percentage for writes
system.mem_ctrls.avgRdQLen                       1.00                       # Average read queue length when enqueuing
system.mem_ctrls.avgWrQLen                      24.30                       # Average write queue length when enqueuing
system.mem_ctrls.readRowHits                   274949                       # Number of row buffer hits during reads
system.mem_ctrls.writeRowHits                   12650                       # Number of row buffer hits during writes
system.mem_ctrls.readRowHitRate                 86.72                       # Row buffer hit rate for reads
system.mem_ctrls.writeRowHitRate                90.18                       # Row buffer hit rate for writes
system.mem_ctrls.avgGap                     328581.23                       # Average gap between requests
system.mem_ctrls.pageHitRate                    86.87                       # Row buffer hit rate, read and write combined
system.mem_ctrls_0.actEnergy                196399980                       # Energy for activate commands per rank (pJ)
system.mem_ctrls_0.preEnergy                104377680                       # Energy for precharge commands per rank (pJ)
system.mem_ctrls_0.readEnergy              1219783320                       # Energy for read commands per rank (pJ)
system.mem_ctrls_0.writeEnergy               68966640                       # Energy for write commands per rank (pJ)
system.mem_ctrls_0.refreshEnergy         9115725840.000002                       # Energy for refresh commands per rank (pJ)
system.mem_ctrls_0.actBackEnergy           4521242850                       # Energy for active background per rank (pJ)
system.mem_ctrls_0.preBackEnergy            313350720                       # Energy for precharge background per rank (pJ)
system.mem_ctrls_0.actPowerDownEnergy     30376035870                       # Energy for active power-down per rank (pJ)
system.mem_ctrls_0.prePowerDownEnergy     11157868800                       # Energy for precharge power-down per rank (pJ)
system.mem_ctrls_0.selfRefreshEnergy       1968017640                       # Energy for self refresh per rank (pJ)
system.mem_ctrls_0.totalEnergy            59045461110                       # Total energy per rank (pJ)
system.mem_ctrls_0.averagePower            528.495824                       # Core power per rank (mW)
system.mem_ctrls_0.totalIdleTime         100983863000                       # Total Idle time Per DRAM Rank
system.mem_ctrls_0.memoryStateTime::IDLE    413153500                       # Time in different power states
system.mem_ctrls_0.memoryStateTime::REF    3864364000                       # Time in different power states
system.mem_ctrls_0.memoryStateTime::SREF   5313296750                       # Time in different power states
system.mem_ctrls_0.memoryStateTime::PRE_PDN  29056653500                       # Time in different power states
system.mem_ctrls_0.memoryStateTime::ACT    6462011000                       # Time in different power states
system.mem_ctrls_0.memoryStateTime::ACT_PDN  66614130750                       # Time in different power states
system.mem_ctrls_1.actEnergy                113754480                       # Energy for activate commands per rank (pJ)
system.mem_ctrls_1.preEnergy                 60450555                       # Energy for precharge commands per rank (pJ)
system.mem_ctrls_1.readEnergy              1043882280                       # Energy for read commands per rank (pJ)
system.mem_ctrls_1.writeEnergy                4102920                       # Energy for write commands per rank (pJ)
system.mem_ctrls_1.refreshEnergy         7193131920.000001                       # Energy for refresh commands per rank (pJ)
system.mem_ctrls_1.actBackEnergy           3229236960                       # Energy for active background per rank (pJ)
system.mem_ctrls_1.preBackEnergy            332805120                       # Energy for precharge background per rank (pJ)
system.mem_ctrls_1.actPowerDownEnergy     21711444210                       # Energy for active power-down per rank (pJ)
system.mem_ctrls_1.prePowerDownEnergy      8894938080                       # Energy for precharge power-down per rank (pJ)
system.mem_ctrls_1.selfRefreshEnergy       8863983000                       # Energy for self refresh per rank (pJ)
system.mem_ctrls_1.totalEnergy            51449184195                       # Total energy per rank (pJ)
system.mem_ctrls_1.averagePower            460.504135                       # Core power per rank (mW)
system.mem_ctrls_1.totalIdleTime         103772100500                       # Total Idle time Per DRAM Rank
system.mem_ctrls_1.memoryStateTime::IDLE    525417000                       # Time in different power states
system.mem_ctrls_1.memoryStateTime::REF    3053532000                       # Time in different power states
system.mem_ctrls_1.memoryStateTime::SREF  32995311250                       # Time in different power states
system.mem_ctrls_1.memoryStateTime::PRE_PDN  23163998250                       # Time in different power states
system.mem_ctrls_1.memoryStateTime::ACT    4372518250                       # Time in different power states
system.mem_ctrls_1.memoryStateTime::ACT_PDN  47612832750                       # Time in different power states
system.pwrStateResidencyTicks::UNDEFINED 111723609500                       # Cumulative time (in ticks) in various power states
system.cpu_voltage_domain.voltage                   1                       # Voltage in Volts
system.cpu_clk_domain.clock                       500                       # Clock period in ticks
system.cpu.dstage2_mmu.stage2_tlb.walker.pwrStateResidencyTicks::UNDEFINED 111723609500                       # Cumulative time (in ticks) in various power states
system.cpu.dstage2_mmu.stage2_tlb.walker.walks            0                       # Table walker walks requested
system.cpu.dstage2_mmu.stage2_tlb.walker.walkRequestOrigin_Requested::Data            0                       # Table walker requests started/completed, data/inst
system.cpu.dstage2_mmu.stage2_tlb.walker.walkRequestOrigin_Requested::Inst            0                       # Table walker requests started/completed, data/inst
system.cpu.dstage2_mmu.stage2_tlb.walker.walkRequestOrigin_Requested::total            0                       # Table walker requests started/completed, data/inst
system.cpu.dstage2_mmu.stage2_tlb.walker.walkRequestOrigin_Completed::Data            0                       # Table walker requests started/completed, data/inst
system.cpu.dstage2_mmu.stage2_tlb.walker.walkRequestOrigin_Completed::Inst            0                       # Table walker requests started/completed, data/inst
system.cpu.dstage2_mmu.stage2_tlb.walker.walkRequestOrigin_Completed::total            0                       # Table walker requests started/completed, data/inst
system.cpu.dstage2_mmu.stage2_tlb.walker.walkRequestOrigin::total            0                       # Table walker requests started/completed, data/inst
system.cpu.dstage2_mmu.stage2_tlb.inst_hits            0                       # ITB inst hits
system.cpu.dstage2_mmu.stage2_tlb.inst_misses            0                       # ITB inst misses
system.cpu.dstage2_mmu.stage2_tlb.read_hits            0                       # DTB read hits
system.cpu.dstage2_mmu.stage2_tlb.read_misses            0                       # DTB read misses
system.cpu.dstage2_mmu.stage2_tlb.write_hits            0                       # DTB write hits
system.cpu.dstage2_mmu.stage2_tlb.write_misses            0                       # DTB write misses
system.cpu.dstage2_mmu.stage2_tlb.flush_tlb            0                       # Number of times complete TLB was flushed
system.cpu.dstage2_mmu.stage2_tlb.flush_tlb_mva            0                       # Number of times TLB was flushed by MVA
system.cpu.dstage2_mmu.stage2_tlb.flush_tlb_mva_asid            0                       # Number of times TLB was flushed by MVA & ASID
system.cpu.dstage2_mmu.stage2_tlb.flush_tlb_asid            0                       # Number of times TLB was flushed by ASID
system.cpu.dstage2_mmu.stage2_tlb.flush_entries            0                       # Number of entries that have been flushed from TLB
system.cpu.dstage2_mmu.stage2_tlb.align_faults            0                       # Number of TLB faults due to alignment restrictions
system.cpu.dstage2_mmu.stage2_tlb.prefetch_faults            0                       # Number of TLB faults due to prefetch
system.cpu.dstage2_mmu.stage2_tlb.domain_faults            0                       # Number of TLB faults due to domain restrictions
system.cpu.dstage2_mmu.stage2_tlb.perms_faults            0                       # Number of TLB faults due to permissions restrictions
system.cpu.dstage2_mmu.stage2_tlb.read_accesses            0                       # DTB read accesses
system.cpu.dstage2_mmu.stage2_tlb.write_accesses            0                       # DTB write accesses
system.cpu.dstage2_mmu.stage2_tlb.inst_accesses            0                       # ITB inst accesses
system.cpu.dstage2_mmu.stage2_tlb.hits              0                       # DTB hits
system.cpu.dstage2_mmu.stage2_tlb.misses            0                       # DTB misses
system.cpu.dstage2_mmu.stage2_tlb.accesses            0                       # DTB accesses
system.cpu.dtb.walker.pwrStateResidencyTicks::UNDEFINED 111723609500                       # Cumulative time (in ticks) in various power states
system.cpu.dtb.walker.walks                         0                       # Table walker walks requested
system.cpu.dtb.walker.walkRequestOrigin_Requested::Data            0                       # Table walker requests started/completed, data/inst
system.cpu.dtb.walker.walkRequestOrigin_Requested::Inst            0                       # Table walker requests started/completed, data/inst
system.cpu.dtb.walker.walkRequestOrigin_Requested::total            0                       # Table walker requests started/completed, data/inst
system.cpu.dtb.walker.walkRequestOrigin_Completed::Data            0                       # Table walker requests started/completed, data/inst
system.cpu.dtb.walker.walkRequestOrigin_Completed::Inst            0                       # Table walker requests started/completed, data/inst
system.cpu.dtb.walker.walkRequestOrigin_Completed::total            0                       # Table walker requests started/completed, data/inst
system.cpu.dtb.walker.walkRequestOrigin::total            0                       # Table walker requests started/completed, data/inst
system.cpu.dtb.inst_hits                            0                       # ITB inst hits
system.cpu.dtb.inst_misses                          0                       # ITB inst misses
system.cpu.dtb.read_hits                            0                       # DTB read hits
system.cpu.dtb.read_misses                          0                       # DTB read misses
system.cpu.dtb.write_hits                           0                       # DTB write hits
system.cpu.dtb.write_misses                         0                       # DTB write misses
system.cpu.dtb.flush_tlb                            0                       # Number of times complete TLB was flushed
system.cpu.dtb.flush_tlb_mva                        0                       # Number of times TLB was flushed by MVA
system.cpu.dtb.flush_tlb_mva_asid                   0                       # Number of times TLB was flushed by MVA & ASID
system.cpu.dtb.flush_tlb_asid                       0                       # Number of times TLB was flushed by ASID
system.cpu.dtb.flush_entries                        0                       # Number of entries that have been flushed from TLB
system.cpu.dtb.align_faults                         0                       # Number of TLB faults due to alignment restrictions
system.cpu.dtb.prefetch_faults                      0                       # Number of TLB faults due to prefetch
system.cpu.dtb.domain_faults                        0                       # Number of TLB faults due to domain restrictions
system.cpu.dtb.perms_faults                         0                       # Number of TLB faults due to permissions restrictions
system.cpu.dtb.read_accesses                        0                       # DTB read accesses
system.cpu.dtb.write_accesses                       0                       # DTB write accesses
system.cpu.dtb.inst_accesses                        0                       # ITB inst accesses
system.cpu.dtb.hits                                 0                       # DTB hits
system.cpu.dtb.misses                               0                       # DTB misses
system.cpu.dtb.accesses                             0                       # DTB accesses
system.cpu.istage2_mmu.stage2_tlb.walker.pwrStateResidencyTicks::UNDEFINED 111723609500                       # Cumulative time (in ticks) in various power states
system.cpu.istage2_mmu.stage2_tlb.walker.walks            0                       # Table walker walks requested
system.cpu.istage2_mmu.stage2_tlb.walker.walkRequestOrigin_Requested::Data            0                       # Table walker requests started/completed, data/inst
system.cpu.istage2_mmu.stage2_tlb.walker.walkRequestOrigin_Requested::Inst            0                       # Table walker requests started/completed, data/inst
system.cpu.istage2_mmu.stage2_tlb.walker.walkRequestOrigin_Requested::total            0                       # Table walker requests started/completed, data/inst
system.cpu.istage2_mmu.stage2_tlb.walker.walkRequestOrigin_Completed::Data            0                       # Table walker requests started/completed, data/inst
system.cpu.istage2_mmu.stage2_tlb.walker.walkRequestOrigin_Completed::Inst            0                       # Table walker requests started/completed, data/inst
system.cpu.istage2_mmu.stage2_tlb.walker.walkRequestOrigin_Completed::total            0                       # Table walker requests started/completed, data/inst
system.cpu.istage2_mmu.stage2_tlb.walker.walkRequestOrigin::total            0                       # Table walker requests started/completed, data/inst
system.cpu.istage2_mmu.stage2_tlb.inst_hits            0                       # ITB inst hits
system.cpu.istage2_mmu.stage2_tlb.inst_misses            0                       # ITB inst misses
system.cpu.istage2_mmu.stage2_tlb.read_hits            0                       # DTB read hits
system.cpu.istage2_mmu.stage2_tlb.read_misses            0                       # DTB read misses
system.cpu.istage2_mmu.stage2_tlb.write_hits            0                       # DTB write hits
system.cpu.istage2_mmu.stage2_tlb.write_misses            0                       # DTB write misses
system.cpu.istage2_mmu.stage2_tlb.flush_tlb            0                       # Number of times complete TLB was flushed
system.cpu.istage2_mmu.stage2_tlb.flush_tlb_mva            0                       # Number of times TLB was flushed by MVA
system.cpu.istage2_mmu.stage2_tlb.flush_tlb_mva_asid            0                       # Number of times TLB was flushed by MVA & ASID
system.cpu.istage2_mmu.stage2_tlb.flush_tlb_asid            0                       # Number of times TLB was flushed by ASID
system.cpu.istage2_mmu.stage2_tlb.flush_entries            0                       # Number of entries that have been flushed from TLB
system.cpu.istage2_mmu.stage2_tlb.align_faults            0                       # Number of TLB faults due to alignment restrictions
system.cpu.istage2_mmu.stage2_tlb.prefetch_faults            0                       # Number of TLB faults due to prefetch
system.cpu.istage2_mmu.stage2_tlb.domain_faults            0                       # Number of TLB faults due to domain restrictions
system.cpu.istage2_mmu.stage2_tlb.perms_faults            0                       # Number of TLB faults due to permissions restrictions
system.cpu.istage2_mmu.stage2_tlb.read_accesses            0                       # DTB read accesses
system.cpu.istage2_mmu.stage2_tlb.write_accesses            0                       # DTB write accesses
system.cpu.istage2_mmu.stage2_tlb.inst_accesses            0                       # ITB inst accesses
system.cpu.istage2_mmu.stage2_tlb.hits              0                       # DTB hits
system.cpu.istage2_mmu.stage2_tlb.misses            0                       # DTB misses
system.cpu.istage2_mmu.stage2_tlb.accesses            0                       # DTB accesses
system.cpu.itb.walker.pwrStateResidencyTicks::UNDEFINED 111723609500                       # Cumulative time (in ticks) in various power states
system.cpu.itb.walker.walks                         0                       # Table walker walks requested
system.cpu.itb.walker.walkRequestOrigin_Requested::Data            0                       # Table walker requests started/completed, data/inst
system.cpu.itb.walker.walkRequestOrigin_Requested::Inst            0                       # Table walker requests started/completed, data/inst
system.cpu.itb.walker.walkRequestOrigin_Requested::total            0                       # Table walker requests started/completed, data/inst
system.cpu.itb.walker.walkRequestOrigin_Completed::Data            0                       # Table walker requests started/completed, data/inst
system.cpu.itb.walker.walkRequestOrigin_Completed::Inst            0                       # Table walker requests started/completed, data/inst
system.cpu.itb.walker.walkRequestOrigin_Completed::total            0                       # Table walker requests started/completed, data/inst
system.cpu.itb.walker.walkRequestOrigin::total            0                       # Table walker requests started/completed, data/inst
system.cpu.itb.inst_hits                            0                       # ITB inst hits
system.cpu.itb.inst_misses                          0                       # ITB inst misses
system.cpu.itb.read_hits                            0                       # DTB read hits
system.cpu.itb.read_misses                          0                       # DTB read misses
system.cpu.itb.write_hits                           0                       # DTB write hits
system.cpu.itb.write_misses                         0                       # DTB write misses
system.cpu.itb.flush_tlb                            0                       # Number of times complete TLB was flushed
system.cpu.itb.flush_tlb_mva                        0                       # Number of times TLB was flushed by MVA
system.cpu.itb.flush_tlb_mva_asid                   0                       # Number of times TLB was flushed by MVA & ASID
system.cpu.itb.flush_tlb_asid                       0                       # Number of times TLB was flushed by ASID
system.cpu.itb.flush_entries                        0                       # Number of entries that have been flushed from TLB
system.cpu.itb.align_faults                         0                       # Number of TLB faults due to alignment restrictions
system.cpu.itb.prefetch_faults                      0                       # Number of TLB faults due to prefetch
system.cpu.itb.domain_faults                        0                       # Number of TLB faults due to domain restrictions
system.cpu.itb.perms_faults                         0                       # Number of TLB faults due to permissions restrictions
system.cpu.itb.read_accesses                        0                       # DTB read accesses
system.cpu.itb.write_accesses                       0                       # DTB write accesses
system.cpu.itb.inst_accesses                        0                       # ITB inst accesses
system.cpu.itb.hits                                 0                       # DTB hits
system.cpu.itb.misses                               0                       # DTB misses
system.cpu.itb.accesses                             0                       # DTB accesses
system.cpu.workload.numSyscalls                   239                       # Number of system calls
system.cpu.pwrStateResidencyTicks::ON    111723609500                       # Cumulative time (in ticks) in various power states
system.cpu.numCycles                        223447219                       # number of cpu cycles simulated
system.cpu.numWorkItemsStarted                      0                       # number of work items this cpu started
system.cpu.numWorkItemsCompleted                    0                       # number of work items this cpu completed
system.cpu.committedInsts                    43681713                       # Number of instructions committed
system.cpu.committedOps                      46438302                       # Number of ops (including micro ops) committed
system.cpu.num_int_alu_accesses              36550918                       # Number of integer alu accesses
system.cpu.num_fp_alu_accesses                     16                       # Number of float alu accesses
system.cpu.num_vec_alu_accesses                     0                       # Number of vector alu accesses
system.cpu.num_func_calls                      479840                       # number of times a function call or return occured
system.cpu.num_conditional_control_insts      9756863                       # number of instructions that are conditional controls
system.cpu.num_int_insts                     36550918                       # number of integer instructions
system.cpu.num_fp_insts                            16                       # number of float instructions
system.cpu.num_vec_insts                            0                       # number of vector instructions
system.cpu.num_int_register_reads            62405351                       # number of times the integer registers were read
system.cpu.num_int_register_writes           21331329                       # number of times the integer registers were written
system.cpu.num_fp_register_reads                   16                       # number of times the floating registers were read
system.cpu.num_fp_register_writes                   0                       # number of times the floating registers were written
system.cpu.num_vec_register_reads                   0                       # number of times the vector registers were read
system.cpu.num_vec_register_writes                  0                       # number of times the vector registers were written
system.cpu.num_cc_register_reads            167328417                       # number of times the CC registers were read
system.cpu.num_cc_register_writes            30215580                       # number of times the CC registers were written
system.cpu.num_mem_refs                      14199999                       # number of memory refs
system.cpu.num_load_insts                     9180680                       # Number of load instructions
system.cpu.num_store_insts                    5019319                       # Number of store instructions
system.cpu.num_idle_cycles                          0                       # Number of idle cycles
system.cpu.num_busy_cycles                  223447219                       # Number of busy cycles
system.cpu.not_idle_fraction                        1                       # Percentage of non-idle cycles
system.cpu.idle_fraction                            0                       # Percentage of idle cycles
system.cpu.Branches                          10612420                       # Number of branches fetched
system.cpu.op_class::No_OpClass                     0      0.00%      0.00% # Class of executed instruction
system.cpu.op_class::IntAlu                  32367987     69.48%     69.48% # Class of executed instruction
system.cpu.op_class::IntMult                    19468      0.04%     69.52% # Class of executed instruction
system.cpu.op_class::IntDiv                         0      0.00%     69.52% # Class of executed instruction
system.cpu.op_class::FloatAdd                       0      0.00%     69.52% # Class of executed instruction
system.cpu.op_class::FloatCmp                       0      0.00%     69.52% # Class of executed instruction
system.cpu.op_class::FloatCvt                       0      0.00%     69.52% # Class of executed instruction
system.cpu.op_class::FloatMult                      0      0.00%     69.52% # Class of executed instruction
system.cpu.op_class::FloatMultAcc                   0      0.00%     69.52% # Class of executed instruction
system.cpu.op_class::FloatDiv                       0      0.00%     69.52% # Class of executed instruction
system.cpu.op_class::FloatMisc                      0      0.00%     69.52% # Class of executed instruction
system.cpu.op_class::FloatSqrt                      0      0.00%     69.52% # Class of executed instruction
system.cpu.op_class::SimdAdd                        0      0.00%     69.52% # Class of executed instruction
system.cpu.op_class::SimdAddAcc                     0      0.00%     69.52% # Class of executed instruction
system.cpu.op_class::SimdAlu                        0      0.00%     69.52% # Class of executed instruction
system.cpu.op_class::SimdCmp                        0      0.00%     69.52% # Class of executed instruction
system.cpu.op_class::SimdCvt                        0      0.00%     69.52% # Class of executed instruction
system.cpu.op_class::SimdMisc                       0      0.00%     69.52% # Class of executed instruction
system.cpu.op_class::SimdMult                       0      0.00%     69.52% # Class of executed instruction
system.cpu.op_class::SimdMultAcc                    0      0.00%     69.52% # Class of executed instruction
system.cpu.op_class::SimdShift                      0      0.00%     69.52% # Class of executed instruction
system.cpu.op_class::SimdShiftAcc                   0      0.00%     69.52% # Class of executed instruction
system.cpu.op_class::SimdSqrt                       0      0.00%     69.52% # Class of executed instruction
system.cpu.op_class::SimdFloatAdd                   0      0.00%     69.52% # Class of executed instruction
system.cpu.op_class::SimdFloatAlu                   0      0.00%     69.52% # Class of executed instruction
system.cpu.op_class::SimdFloatCmp                   0      0.00%     69.52% # Class of executed instruction
system.cpu.op_class::SimdFloatCvt                   0      0.00%     69.52% # Class of executed instruction
system.cpu.op_class::SimdFloatDiv                   0      0.00%     69.52% # Class of executed instruction
system.cpu.op_class::SimdFloatMisc                  0      0.00%     69.52% # Class of executed instruction
system.cpu.op_class::SimdFloatMult                  0      0.00%     69.52% # Class of executed instruction
system.cpu.op_class::SimdFloatMultAcc               0      0.00%     69.52% # Class of executed instruction
system.cpu.op_class::SimdFloatSqrt                  0      0.00%     69.52% # Class of executed instruction
system.cpu.op_class::MemRead                  9180680     19.71%     89.23% # Class of executed instruction
system.cpu.op_class::MemWrite                 5019303     10.77%    100.00% # Class of executed instruction
system.cpu.op_class::FloatMemRead                   0      0.00%    100.00% # Class of executed instruction
system.cpu.op_class::FloatMemWrite                 16      0.00%    100.00% # Class of executed instruction
system.cpu.op_class::IprAccess                      0      0.00%    100.00% # Class of executed instruction
system.cpu.op_class::InstPrefetch                   0      0.00%    100.00% # Class of executed instruction
system.cpu.op_class::total                   46587454                       # Class of executed instruction
system.cpu.dcache.tags.pwrStateResidencyTicks::UNDEFINED 111723609500                       # Cumulative time (in ticks) in various power states
system.cpu.dcache.tags.replacements            501729                       # number of replacements
system.cpu.dcache.tags.tagsinuse           510.429255                       # Cycle average of tags in use
system.cpu.dcache.tags.total_refs            13660682                       # Total number of references to valid blocks.
system.cpu.dcache.tags.sampled_refs            502241                       # Sample count of references to valid blocks.
system.cpu.dcache.tags.avg_refs             27.199456                       # Average number of references to valid blocks.
system.cpu.dcache.tags.warmup_cycle        3187745500                       # Cycle when the warmup percentage was hit.
system.cpu.dcache.tags.occ_blocks::cpu.data   510.429255                       # Average occupied blocks per requestor
system.cpu.dcache.tags.occ_percent::cpu.data     0.996932                       # Average percentage of cache occupancy
system.cpu.dcache.tags.occ_percent::total     0.996932                       # Average percentage of cache occupancy
system.cpu.dcache.tags.occ_task_id_blocks::1024          512                       # Occupied blocks per task id
system.cpu.dcache.tags.age_task_id_blocks_1024::0           26                       # Occupied blocks per task id
system.cpu.dcache.tags.age_task_id_blocks_1024::1          297                       # Occupied blocks per task id
system.cpu.dcache.tags.age_task_id_blocks_1024::2          120                       # Occupied blocks per task id
system.cpu.dcache.tags.age_task_id_blocks_1024::3           47                       # Occupied blocks per task id
system.cpu.dcache.tags.age_task_id_blocks_1024::4           22                       # Occupied blocks per task id
system.cpu.dcache.tags.occ_task_id_percent::1024            1                       # Percentage of cache occupancy per task id
system.cpu.dcache.tags.tag_accesses          57153933                       # Number of tag accesses
system.cpu.dcache.tags.data_accesses         57153933                       # Number of data accesses
system.cpu.dcache.pwrStateResidencyTicks::UNDEFINED 111723609500                       # Cumulative time (in ticks) in various power states
system.cpu.dcache.ReadReq_hits::cpu.data      8622890                       # number of ReadReq hits
system.cpu.dcache.ReadReq_hits::total         8622890                       # number of ReadReq hits
system.cpu.dcache.WriteReq_hits::cpu.data      4847332                       # number of WriteReq hits
system.cpu.dcache.WriteReq_hits::total        4847332                       # number of WriteReq hits
system.cpu.dcache.LoadLockedReq_hits::cpu.data        95230                       # number of LoadLockedReq hits
system.cpu.dcache.LoadLockedReq_hits::total        95230                       # number of LoadLockedReq hits
system.cpu.dcache.StoreCondReq_hits::cpu.data        95230                       # number of StoreCondReq hits
system.cpu.dcache.StoreCondReq_hits::total        95230                       # number of StoreCondReq hits
system.cpu.dcache.demand_hits::cpu.data      13470222                       # number of demand (read+write) hits
system.cpu.dcache.demand_hits::total         13470222                       # number of demand (read+write) hits
system.cpu.dcache.overall_hits::cpu.data     13470222                       # number of overall hits
system.cpu.dcache.overall_hits::total        13470222                       # number of overall hits
system.cpu.dcache.ReadReq_misses::cpu.data       487172                       # number of ReadReq misses
system.cpu.dcache.ReadReq_misses::total        487172                       # number of ReadReq misses
system.cpu.dcache.WriteReq_misses::cpu.data        15069                       # number of WriteReq misses
system.cpu.dcache.WriteReq_misses::total        15069                       # number of WriteReq misses
system.cpu.dcache.demand_misses::cpu.data       502241                       # number of demand (read+write) misses
system.cpu.dcache.demand_misses::total         502241                       # number of demand (read+write) misses
system.cpu.dcache.overall_misses::cpu.data       502241                       # number of overall misses
system.cpu.dcache.overall_misses::total        502241                       # number of overall misses
system.cpu.dcache.ReadReq_miss_latency::cpu.data  29100409000                       # number of ReadReq miss cycles
system.cpu.dcache.ReadReq_miss_latency::total  29100409000                       # number of ReadReq miss cycles
system.cpu.dcache.WriteReq_miss_latency::cpu.data    910598000                       # number of WriteReq miss cycles
system.cpu.dcache.WriteReq_miss_latency::total    910598000                       # number of WriteReq miss cycles
system.cpu.dcache.demand_miss_latency::cpu.data  30011007000                       # number of demand (read+write) miss cycles
system.cpu.dcache.demand_miss_latency::total  30011007000                       # number of demand (read+write) miss cycles
system.cpu.dcache.overall_miss_latency::cpu.data  30011007000                       # number of overall miss cycles
system.cpu.dcache.overall_miss_latency::total  30011007000                       # number of overall miss cycles
system.cpu.dcache.ReadReq_accesses::cpu.data      9110062                       # number of ReadReq accesses(hits+misses)
system.cpu.dcache.ReadReq_accesses::total      9110062                       # number of ReadReq accesses(hits+misses)
system.cpu.dcache.WriteReq_accesses::cpu.data      4862401                       # number of WriteReq accesses(hits+misses)
system.cpu.dcache.WriteReq_accesses::total      4862401                       # number of WriteReq accesses(hits+misses)
system.cpu.dcache.LoadLockedReq_accesses::cpu.data        95230                       # number of LoadLockedReq accesses(hits+misses)
system.cpu.dcache.LoadLockedReq_accesses::total        95230                       # number of LoadLockedReq accesses(hits+misses)
system.cpu.dcache.StoreCondReq_accesses::cpu.data        95230                       # number of StoreCondReq accesses(hits+misses)
system.cpu.dcache.StoreCondReq_accesses::total        95230                       # number of StoreCondReq accesses(hits+misses)
system.cpu.dcache.demand_accesses::cpu.data     13972463                       # number of demand (read+write) accesses
system.cpu.dcache.demand_accesses::total     13972463                       # number of demand (read+write) accesses
system.cpu.dcache.overall_accesses::cpu.data     13972463                       # number of overall (read+write) accesses
system.cpu.dcache.overall_accesses::total     13972463                       # number of overall (read+write) accesses
system.cpu.dcache.ReadReq_miss_rate::cpu.data     0.053476                       # miss rate for ReadReq accesses
system.cpu.dcache.ReadReq_miss_rate::total     0.053476                       # miss rate for ReadReq accesses
system.cpu.dcache.WriteReq_miss_rate::cpu.data     0.003099                       # miss rate for WriteReq accesses
system.cpu.dcache.WriteReq_miss_rate::total     0.003099                       # miss rate for WriteReq accesses
system.cpu.dcache.demand_miss_rate::cpu.data     0.035945                       # miss rate for demand accesses
system.cpu.dcache.demand_miss_rate::total     0.035945                       # miss rate for demand accesses
system.cpu.dcache.overall_miss_rate::cpu.data     0.035945                       # miss rate for overall accesses
system.cpu.dcache.overall_miss_rate::total     0.035945                       # miss rate for overall accesses
system.cpu.dcache.ReadReq_avg_miss_latency::cpu.data 59733.336481                       # average ReadReq miss latency
system.cpu.dcache.ReadReq_avg_miss_latency::total 59733.336481                       # average ReadReq miss latency
system.cpu.dcache.WriteReq_avg_miss_latency::cpu.data 60428.561948                       # average WriteReq miss latency
system.cpu.dcache.WriteReq_avg_miss_latency::total 60428.561948                       # average WriteReq miss latency
system.cpu.dcache.demand_avg_miss_latency::cpu.data 59754.195695                       # average overall miss latency
system.cpu.dcache.demand_avg_miss_latency::total 59754.195695                       # average overall miss latency
system.cpu.dcache.overall_avg_miss_latency::cpu.data 59754.195695                       # average overall miss latency
system.cpu.dcache.overall_avg_miss_latency::total 59754.195695                       # average overall miss latency
system.cpu.dcache.blocked_cycles::no_mshrs            0                       # number of cycles access was blocked
system.cpu.dcache.blocked_cycles::no_targets            0                       # number of cycles access was blocked
system.cpu.dcache.blocked::no_mshrs                 0                       # number of cycles access was blocked
system.cpu.dcache.blocked::no_targets               0                       # number of cycles access was blocked
system.cpu.dcache.avg_blocked_cycles::no_mshrs          nan                       # average number of cycles each access was blocked
system.cpu.dcache.avg_blocked_cycles::no_targets          nan                       # average number of cycles each access was blocked
system.cpu.dcache.writebacks::writebacks       115890                       # number of writebacks
system.cpu.dcache.writebacks::total            115890                       # number of writebacks
system.cpu.dcache.ReadReq_mshr_misses::cpu.data       487172                       # number of ReadReq MSHR misses
system.cpu.dcache.ReadReq_mshr_misses::total       487172                       # number of ReadReq MSHR misses
system.cpu.dcache.WriteReq_mshr_misses::cpu.data        15069                       # number of WriteReq MSHR misses
system.cpu.dcache.WriteReq_mshr_misses::total        15069                       # number of WriteReq MSHR misses
system.cpu.dcache.demand_mshr_misses::cpu.data       502241                       # number of demand (read+write) MSHR misses
system.cpu.dcache.demand_mshr_misses::total       502241                       # number of demand (read+write) MSHR misses
system.cpu.dcache.overall_mshr_misses::cpu.data       502241                       # number of overall MSHR misses
system.cpu.dcache.overall_mshr_misses::total       502241                       # number of overall MSHR misses
system.cpu.dcache.ReadReq_mshr_miss_latency::cpu.data  28613237000                       # number of ReadReq MSHR miss cycles
system.cpu.dcache.ReadReq_mshr_miss_latency::total  28613237000                       # number of ReadReq MSHR miss cycles
system.cpu.dcache.WriteReq_mshr_miss_latency::cpu.data    895529000                       # number of WriteReq MSHR miss cycles
system.cpu.dcache.WriteReq_mshr_miss_latency::total    895529000                       # number of WriteReq MSHR miss cycles
system.cpu.dcache.demand_mshr_miss_latency::cpu.data  29508766000                       # number of demand (read+write) MSHR miss cycles
system.cpu.dcache.demand_mshr_miss_latency::total  29508766000                       # number of demand (read+write) MSHR miss cycles
system.cpu.dcache.overall_mshr_miss_latency::cpu.data  29508766000                       # number of overall MSHR miss cycles
system.cpu.dcache.overall_mshr_miss_latency::total  29508766000                       # number of overall MSHR miss cycles
system.cpu.dcache.ReadReq_mshr_miss_rate::cpu.data     0.053476                       # mshr miss rate for ReadReq accesses
system.cpu.dcache.ReadReq_mshr_miss_rate::total     0.053476                       # mshr miss rate for ReadReq accesses
system.cpu.dcache.WriteReq_mshr_miss_rate::cpu.data     0.003099                       # mshr miss rate for WriteReq accesses
system.cpu.dcache.WriteReq_mshr_miss_rate::total     0.003099                       # mshr miss rate for WriteReq accesses
system.cpu.dcache.demand_mshr_miss_rate::cpu.data     0.035945                       # mshr miss rate for demand accesses
system.cpu.dcache.demand_mshr_miss_rate::total     0.035945                       # mshr miss rate for demand accesses
system.cpu.dcache.overall_mshr_miss_rate::cpu.data     0.035945                       # mshr miss rate for overall accesses
system.cpu.dcache.overall_mshr_miss_rate::total     0.035945                       # mshr miss rate for overall accesses
system.cpu.dcache.ReadReq_avg_mshr_miss_latency::cpu.data 58733.336481                       # average ReadReq mshr miss latency
system.cpu.dcache.ReadReq_avg_mshr_miss_latency::total 58733.336481                       # average ReadReq mshr miss latency
system.cpu.dcache.WriteReq_avg_mshr_miss_latency::cpu.data 59428.561948                       # average WriteReq mshr miss latency
system.cpu.dcache.WriteReq_avg_mshr_miss_latency::total 59428.561948                       # average WriteReq mshr miss latency
system.cpu.dcache.demand_avg_mshr_miss_latency::cpu.data 58754.195695                       # average overall mshr miss latency
system.cpu.dcache.demand_avg_mshr_miss_latency::total 58754.195695                       # average overall mshr miss latency
system.cpu.dcache.overall_avg_mshr_miss_latency::cpu.data 58754.195695                       # average overall mshr miss latency
system.cpu.dcache.overall_avg_mshr_miss_latency::total 58754.195695                       # average overall mshr miss latency
system.cpu.icache.tags.pwrStateResidencyTicks::UNDEFINED 111723609500                       # Cumulative time (in ticks) in various power states
system.cpu.icache.tags.replacements           1978141                       # number of replacements
system.cpu.icache.tags.tagsinuse           127.975543                       # Cycle average of tags in use
system.cpu.icache.tags.total_refs            41835748                       # Total number of references to valid blocks.
system.cpu.icache.tags.sampled_refs           1978269                       # Sample count of references to valid blocks.
system.cpu.icache.tags.avg_refs             21.147654                       # Average number of references to valid blocks.
system.cpu.icache.tags.warmup_cycle          94782500                       # Cycle when the warmup percentage was hit.
system.cpu.icache.tags.occ_blocks::cpu.inst   127.975543                       # Average occupied blocks per requestor
system.cpu.icache.tags.occ_percent::cpu.inst     0.999809                       # Average percentage of cache occupancy
system.cpu.icache.tags.occ_percent::total     0.999809                       # Average percentage of cache occupancy
system.cpu.icache.tags.occ_task_id_blocks::1024          128                       # Occupied blocks per task id
system.cpu.icache.tags.age_task_id_blocks_1024::0           57                       # Occupied blocks per task id
system.cpu.icache.tags.age_task_id_blocks_1024::1           59                       # Occupied blocks per task id
system.cpu.icache.tags.age_task_id_blocks_1024::3            1                       # Occupied blocks per task id
system.cpu.icache.tags.age_task_id_blocks_1024::4           11                       # Occupied blocks per task id
system.cpu.icache.tags.occ_task_id_percent::1024            1                       # Percentage of cache occupancy per task id
system.cpu.icache.tags.tag_accesses          45792286                       # Number of tag accesses
system.cpu.icache.tags.data_accesses         45792286                       # Number of data accesses
system.cpu.icache.pwrStateResidencyTicks::UNDEFINED 111723609500                       # Cumulative time (in ticks) in various power states
system.cpu.icache.ReadReq_hits::cpu.inst     41835748                       # number of ReadReq hits
system.cpu.icache.ReadReq_hits::total        41835748                       # number of ReadReq hits
system.cpu.icache.demand_hits::cpu.inst      41835748                       # number of demand (read+write) hits
system.cpu.icache.demand_hits::total         41835748                       # number of demand (read+write) hits
system.cpu.icache.overall_hits::cpu.inst     41835748                       # number of overall hits
system.cpu.icache.overall_hits::total        41835748                       # number of overall hits
system.cpu.icache.ReadReq_misses::cpu.inst      1978269                       # number of ReadReq misses
system.cpu.icache.ReadReq_misses::total       1978269                       # number of ReadReq misses
system.cpu.icache.demand_misses::cpu.inst      1978269                       # number of demand (read+write) misses
system.cpu.icache.demand_misses::total        1978269                       # number of demand (read+write) misses
system.cpu.icache.overall_misses::cpu.inst      1978269                       # number of overall misses
system.cpu.icache.overall_misses::total       1978269                       # number of overall misses
system.cpu.icache.ReadReq_miss_latency::cpu.inst  26278331500                       # number of ReadReq miss cycles
system.cpu.icache.ReadReq_miss_latency::total  26278331500                       # number of ReadReq miss cycles
system.cpu.icache.demand_miss_latency::cpu.inst  26278331500                       # number of demand (read+write) miss cycles
system.cpu.icache.demand_miss_latency::total  26278331500                       # number of demand (read+write) miss cycles
system.cpu.icache.overall_miss_latency::cpu.inst  26278331500                       # number of overall miss cycles
system.cpu.icache.overall_miss_latency::total  26278331500                       # number of overall miss cycles
system.cpu.icache.ReadReq_accesses::cpu.inst     43814017                       # number of ReadReq accesses(hits+misses)
system.cpu.icache.ReadReq_accesses::total     43814017                       # number of ReadReq accesses(hits+misses)
system.cpu.icache.demand_accesses::cpu.inst     43814017                       # number of demand (read+write) accesses
system.cpu.icache.demand_accesses::total     43814017                       # number of demand (read+write) accesses
system.cpu.icache.overall_accesses::cpu.inst     43814017                       # number of overall (read+write) accesses
system.cpu.icache.overall_accesses::total     43814017                       # number of overall (read+write) accesses
system.cpu.icache.ReadReq_miss_rate::cpu.inst     0.045152                       # miss rate for ReadReq accesses
system.cpu.icache.ReadReq_miss_rate::total     0.045152                       # miss rate for ReadReq accesses
system.cpu.icache.demand_miss_rate::cpu.inst     0.045152                       # miss rate for demand accesses
system.cpu.icache.demand_miss_rate::total     0.045152                       # miss rate for demand accesses
system.cpu.icache.overall_miss_rate::cpu.inst     0.045152                       # miss rate for overall accesses
system.cpu.icache.overall_miss_rate::total     0.045152                       # miss rate for overall accesses
system.cpu.icache.ReadReq_avg_miss_latency::cpu.inst 13283.497593                       # average ReadReq miss latency
system.cpu.icache.ReadReq_avg_miss_latency::total 13283.497593                       # average ReadReq miss latency
system.cpu.icache.demand_avg_miss_latency::cpu.inst 13283.497593                       # average overall miss latency
system.cpu.icache.demand_avg_miss_latency::total 13283.497593                       # average overall miss latency
system.cpu.icache.overall_avg_miss_latency::cpu.inst 13283.497593                       # average overall miss latency
system.cpu.icache.overall_avg_miss_latency::total 13283.497593                       # average overall miss latency
system.cpu.icache.blocked_cycles::no_mshrs            0                       # number of cycles access was blocked
system.cpu.icache.blocked_cycles::no_targets            0                       # number of cycles access was blocked
system.cpu.icache.blocked::no_mshrs                 0                       # number of cycles access was blocked
system.cpu.icache.blocked::no_targets               0                       # number of cycles access was blocked
system.cpu.icache.avg_blocked_cycles::no_mshrs          nan                       # average number of cycles each access was blocked
system.cpu.icache.avg_blocked_cycles::no_targets          nan                       # average number of cycles each access was blocked
system.cpu.icache.writebacks::writebacks      1978141                       # number of writebacks
system.cpu.icache.writebacks::total           1978141                       # number of writebacks
system.cpu.icache.ReadReq_mshr_misses::cpu.inst      1978269                       # number of ReadReq MSHR misses
system.cpu.icache.ReadReq_mshr_misses::total      1978269                       # number of ReadReq MSHR misses
system.cpu.icache.demand_mshr_misses::cpu.inst      1978269                       # number of demand (read+write) MSHR misses
system.cpu.icache.demand_mshr_misses::total      1978269                       # number of demand (read+write) MSHR misses
system.cpu.icache.overall_mshr_misses::cpu.inst      1978269                       # number of overall MSHR misses
system.cpu.icache.overall_mshr_misses::total      1978269                       # number of overall MSHR misses
system.cpu.icache.ReadReq_mshr_miss_latency::cpu.inst  24300062500                       # number of ReadReq MSHR miss cycles
system.cpu.icache.ReadReq_mshr_miss_latency::total  24300062500                       # number of ReadReq MSHR miss cycles
system.cpu.icache.demand_mshr_miss_latency::cpu.inst  24300062500                       # number of demand (read+write) MSHR miss cycles
system.cpu.icache.demand_mshr_miss_latency::total  24300062500                       # number of demand (read+write) MSHR miss cycles
[...]
system.l2.ReadExReq_accesses::total             15069                       # number of ReadExReq accesses(hits+misses)
system.l2.ReadCleanReq_accesses::cpu.inst      1978269                       # number of ReadCleanReq accesses(hits+misses)
system.l2.ReadCleanReq_accesses::total        1978269                       # number of ReadCleanReq accesses(hits+misses)
system.l2.ReadSharedReq_accesses::cpu.data       487172                       # number of ReadSharedReq accesses(hits+misses)
system.l2.ReadSharedReq_accesses::total        487172                       # number of ReadSharedReq accesses(hits+misses)
system.l2.demand_accesses::cpu.inst           1978269                       # number of demand (read+write) accesses
system.l2.demand_accesses::cpu.data            502241                       # number of demand (read+write) accesses
system.l2.demand_accesses::total              2480510                       # number of demand (read+write) accesses
system.l2.overall_accesses::cpu.inst          1978269                       # number of overall (read+write) accesses
system.l2.overall_accesses::cpu.data           502241                       # number of overall (read+write) accesses
system.l2.overall_accesses::total             2480510                       # number of overall (read+write) accesses
system.l2.ReadExReq_miss_rate::cpu.data      0.385958                       # miss rate for ReadExReq accesses
system.l2.ReadExReq_miss_rate::total         0.385958                       # miss rate for ReadExReq accesses
system.l2.ReadCleanReq_miss_rate::cpu.inst     0.003874                       # miss rate for ReadCleanReq accesses
system.l2.ReadCleanReq_miss_rate::total      0.003874                       # miss rate for ReadCleanReq accesses
system.l2.ReadSharedReq_miss_rate::cpu.data     0.628398                       # miss rate for ReadSharedReq accesses
system.l2.ReadSharedReq_miss_rate::total     0.628398                       # miss rate for ReadSharedReq accesses
system.l2.demand_miss_rate::cpu.inst         0.003874                       # miss rate for demand accesses
system.l2.demand_miss_rate::cpu.data         0.621124                       # miss rate for demand accesses
system.l2.demand_miss_rate::total            0.128852                       # miss rate for demand accesses
system.l2.overall_miss_rate::cpu.inst        0.003874                       # miss rate for overall accesses
system.l2.overall_miss_rate::cpu.data        0.621124                       # miss rate for overall accesses
system.l2.overall_miss_rate::total           0.128852                       # miss rate for overall accesses
system.l2.ReadExReq_avg_miss_latency::cpu.data 133385.316369                       # average ReadExReq miss latency
system.l2.ReadExReq_avg_miss_latency::total 133385.316369                       # average ReadExReq miss latency
system.l2.ReadCleanReq_avg_miss_latency::cpu.inst 82315.174843                       # average ReadCleanReq miss latency
system.l2.ReadCleanReq_avg_miss_latency::total 82315.174843                       # average ReadCleanReq miss latency
system.l2.ReadSharedReq_avg_miss_latency::cpu.data 84868.848363                       # average ReadSharedReq miss latency
system.l2.ReadSharedReq_avg_miss_latency::total 84868.848363                       # average ReadSharedReq miss latency
system.l2.demand_avg_miss_latency::cpu.inst 82315.174843                       # average overall miss latency
system.l2.demand_avg_miss_latency::cpu.data 85773.378447                       # average overall miss latency
system.l2.demand_avg_miss_latency::total 85690.455481                       # average overall miss latency
system.l2.overall_avg_miss_latency::cpu.inst 82315.174843                       # average overall miss latency
system.l2.overall_avg_miss_latency::cpu.data 85773.378447                       # average overall miss latency
system.l2.overall_avg_miss_latency::total 85690.455481                       # average overall miss latency
system.l2.blocked_cycles::no_mshrs                  0                       # number of cycles access was blocked
system.l2.blocked_cycles::no_targets                0                       # number of cycles access was blocked
system.l2.blocked::no_mshrs                         0                       # number of cycles access was blocked
system.l2.blocked::no_targets                       0                       # number of cycles access was blocked
system.l2.avg_blocked_cycles::no_mshrs            nan                       # average number of cycles each access was blocked
system.l2.avg_blocked_cycles::no_targets          nan                       # average number of cycles each access was blocked
system.l2.writebacks::writebacks                20400                       # number of writebacks
system.l2.writebacks::total                     20400                       # number of writebacks
system.l2.CleanEvict_mshr_misses::writebacks        38363                       # number of CleanEvict MSHR misses
system.l2.CleanEvict_mshr_misses::total         38363                       # number of CleanEvict MSHR misses
system.l2.ReadExReq_mshr_misses::cpu.data         5816                       # number of ReadExReq MSHR misses
system.l2.ReadExReq_mshr_misses::total           5816                       # number of ReadExReq MSHR misses
system.l2.ReadCleanReq_mshr_misses::cpu.inst         7664                       # number of ReadCleanReq MSHR misses
system.l2.ReadCleanReq_mshr_misses::total         7664                       # number of ReadCleanReq MSHR misses
system.l2.ReadSharedReq_mshr_misses::cpu.data       306138                       # number of ReadSharedReq MSHR misses
system.l2.ReadSharedReq_mshr_misses::total       306138                       # number of ReadSharedReq MSHR misses
system.l2.demand_mshr_misses::cpu.inst           7664                       # number of demand (read+write) MSHR misses
system.l2.demand_mshr_misses::cpu.data         311954                       # number of demand (read+write) MSHR misses
system.l2.demand_mshr_misses::total            319618                       # number of demand (read+write) MSHR misses
system.l2.overall_mshr_misses::cpu.inst          7664                       # number of overall MSHR misses
system.l2.overall_mshr_misses::cpu.data        311954                       # number of overall MSHR misses
system.l2.overall_mshr_misses::total           319618                       # number of overall MSHR misses
system.l2.ReadExReq_mshr_miss_latency::cpu.data    717609000                       # number of ReadExReq MSHR miss cycles
system.l2.ReadExReq_mshr_miss_latency::total    717609000                       # number of ReadExReq MSHR miss cycles
system.l2.ReadCleanReq_mshr_miss_latency::cpu.inst    554223500                       # number of ReadCleanReq MSHR miss cycles
system.l2.ReadCleanReq_mshr_miss_latency::total    554223500                       # number of ReadCleanReq MSHR miss cycles
system.l2.ReadSharedReq_mshr_miss_latency::cpu.data  22920199500                       # number of ReadSharedReq MSHR miss cycles
system.l2.ReadSharedReq_mshr_miss_latency::total  22920199500                       # number of ReadSharedReq MSHR miss cycles
system.l2.demand_mshr_miss_latency::cpu.inst    554223500                       # number of demand (read+write) MSHR miss cycles
system.l2.demand_mshr_miss_latency::cpu.data  23637808500                       # number of demand (read+write) MSHR miss cycles
system.l2.demand_mshr_miss_latency::total  24192032000                       # number of demand (read+write) MSHR miss cycles
system.l2.overall_mshr_miss_latency::cpu.inst    554223500                       # number of overall MSHR miss cycles
system.l2.overall_mshr_miss_latency::cpu.data  23637808500                       # number of overall MSHR miss cycles
system.l2.overall_mshr_miss_latency::total  24192032000                       # number of overall MSHR miss cycles
system.l2.CleanEvict_mshr_miss_rate::writebacks          inf                       # mshr miss rate for CleanEvict accesses
system.l2.CleanEvict_mshr_miss_rate::total          inf                       # mshr miss rate for CleanEvict accesses
system.l2.ReadExReq_mshr_miss_rate::cpu.data     0.385958                       # mshr miss rate for ReadExReq accesses
system.l2.ReadExReq_mshr_miss_rate::total     0.385958                       # mshr miss rate for ReadExReq accesses
system.l2.ReadCleanReq_mshr_miss_rate::cpu.inst     0.003874                       # mshr miss rate for ReadCleanReq accesses
system.l2.ReadCleanReq_mshr_miss_rate::total     0.003874                       # mshr miss rate for ReadCleanReq accesses
system.l2.ReadSharedReq_mshr_miss_rate::cpu.data     0.628398                       # mshr miss rate for ReadSharedReq accesses
system.l2.ReadSharedReq_mshr_miss_rate::total     0.628398                       # mshr miss rate for ReadSharedReq accesses
system.l2.demand_mshr_miss_rate::cpu.inst     0.003874                       # mshr miss rate for demand accesses
system.l2.demand_mshr_miss_rate::cpu.data     0.621124                       # mshr miss rate for demand accesses
system.l2.demand_mshr_miss_rate::total       0.128852                       # mshr miss rate for demand accesses
system.l2.overall_mshr_miss_rate::cpu.inst     0.003874                       # mshr miss rate for overall accesses
system.l2.overall_mshr_miss_rate::cpu.data     0.621124                       # mshr miss rate for overall accesses
system.l2.overall_mshr_miss_rate::total      0.128852                       # mshr miss rate for overall accesses
system.l2.ReadExReq_avg_mshr_miss_latency::cpu.data 123385.316369                       # average ReadExReq mshr miss latency
system.l2.ReadExReq_avg_mshr_miss_latency::total 123385.316369                       # average ReadExReq mshr miss latency
system.l2.ReadCleanReq_avg_mshr_miss_latency::cpu.inst 72315.174843                       # average ReadCleanReq mshr miss latency
system.l2.ReadCleanReq_avg_mshr_miss_latency::total 72315.174843                       # average ReadCleanReq mshr miss latency
system.l2.ReadSharedReq_avg_mshr_miss_latency::cpu.data 74868.848363                       # average ReadSharedReq mshr miss latency
system.l2.ReadSharedReq_avg_mshr_miss_latency::total 74868.848363                       # average ReadSharedReq mshr miss latency
system.l2.demand_avg_mshr_miss_latency::cpu.inst 72315.174843                       # average overall mshr miss latency
system.l2.demand_avg_mshr_miss_latency::cpu.data 75773.378447                       # average overall mshr miss latency
system.l2.demand_avg_mshr_miss_latency::total 75690.455481                       # average overall mshr miss latency
system.l2.overall_avg_mshr_miss_latency::cpu.inst 72315.174843                       # average overall mshr miss latency
system.l2.overall_avg_mshr_miss_latency::cpu.data 75773.378447                       # average overall mshr miss latency
system.l2.overall_avg_mshr_miss_latency::total 75690.455481                       # average overall mshr miss latency
system.membus.snoop_filter.tot_requests        637979                       # Total number of requests made to the snoop filter.
system.membus.snoop_filter.hit_single_requests       318361                       # Number of requests hitting in the snoop filter with a single holder of the requested data.
system.membus.snoop_filter.hit_multi_requests            0                       # Number of requests hitting in the snoop filter with multiple (>1) holders of the requested data.
system.membus.snoop_filter.tot_snoops               0                       # Total number of snoops made to the snoop filter.
system.membus.snoop_filter.hit_single_snoops            0                       # Number of snoops hitting in the snoop filter with a single holder of the requested data.
system.membus.snoop_filter.hit_multi_snoops            0                       # Number of snoops hitting in the snoop filter with multiple (>1) holders of the requested data.
system.membus.pwrStateResidencyTicks::UNDEFINED 111723609500                       # Cumulative time (in ticks) in various power states
system.membus.trans_dist::ReadResp             313802                       # Transaction distribution
system.membus.trans_dist::WritebackDirty        20400                       # Transaction distribution
system.membus.trans_dist::CleanEvict           297961                       # Transaction distribution
system.membus.trans_dist::ReadExReq              5816                       # Transaction distribution
system.membus.trans_dist::ReadExResp             5816                       # Transaction distribution
system.membus.trans_dist::ReadSharedReq        313802                       # Transaction distribution
system.membus.pkt_count_system.l2.mem_side::system.mem_ctrls.port       957597                       # Packet count per connected master and slave (bytes)
system.membus.pkt_count::total                 957597                       # Packet count per connected master and slave (bytes)
system.membus.pkt_size_system.l2.mem_side::system.mem_ctrls.port      5440288                       # Cumulative packet size per connected master and slave (bytes)
system.membus.pkt_size::total                 5440288                       # Cumulative packet size per connected master and slave (bytes)
system.membus.snoops                                0                       # Total snoops (count)
system.membus.snoopTraffic                          0                       # Total snoop traffic (bytes)
system.membus.snoop_fanout::samples            319618                       # Request fanout histogram
system.membus.snoop_fanout::mean                    0                       # Request fanout histogram
system.membus.snoop_fanout::stdev                   0                       # Request fanout histogram
system.membus.snoop_fanout::underflows              0      0.00%      0.00% # Request fanout histogram
system.membus.snoop_fanout::0                  319618    100.00%    100.00% # Request fanout histogram
system.membus.snoop_fanout::1                       0      0.00%    100.00% # Request fanout histogram
system.membus.snoop_fanout::overflows               0      0.00%    100.00% # Request fanout histogram
system.membus.snoop_fanout::min_value               0                       # Request fanout histogram
system.membus.snoop_fanout::max_value               0                       # Request fanout histogram
system.membus.snoop_fanout::total              319618                       # Request fanout histogram
system.membus.reqLayer0.occupancy           659461500                       # Layer occupancy (ticks)
system.membus.reqLayer0.utilization               0.6                       # Layer utilization (%)
system.membus.respLayer1.occupancy          728126750                       # Layer occupancy (ticks)
system.membus.respLayer1.utilization              0.7                       # Layer utilization (%)
system.tol2bus.snoop_filter.tot_requests      4960380                       # Total number of requests made to the snoop filter.
system.tol2bus.snoop_filter.hit_single_requests      2479871                       # Number of requests hitting in the snoop filter with a single holder of the requested data.
system.tol2bus.snoop_filter.hit_multi_requests        10444                       # Number of requests hitting in the snoop filter with multiple (>1) holders of the requested data.
system.tol2bus.snoop_filter.tot_snoops          64879                       # Total number of snoops made to the snoop filter.
system.tol2bus.snoop_filter.hit_single_snoops        64879                       # Number of snoops hitting in the snoop filter with a single holder of the requested data.
system.tol2bus.snoop_filter.hit_multi_snoops            0                       # Number of snoops hitting in the snoop filter with multiple (>1) holders of the requested data.
system.tol2bus.pwrStateResidencyTicks::UNDEFINED 111723609500                       # Cumulative time (in ticks) in various power states
system.tol2bus.trans_dist::ReadResp           2465441                       # Transaction distribution
system.tol2bus.trans_dist::WritebackDirty       136290                       # Transaction distribution
system.tol2bus.trans_dist::WritebackClean      1978141                       # Transaction distribution
system.tol2bus.trans_dist::CleanEvict          710316                       # Transaction distribution
system.tol2bus.trans_dist::ReadExReq            15069                       # Transaction distribution
system.tol2bus.trans_dist::ReadExResp           15069                       # Transaction distribution
system.tol2bus.trans_dist::ReadCleanReq       1978269                       # Transaction distribution
system.tol2bus.trans_dist::ReadSharedReq       487172                       # Transaction distribution
system.tol2bus.pkt_count_system.cpu.icache.mem_side::system.l2.cpu_side      5934679                       # Packet count per connected master and slave (bytes)
system.tol2bus.pkt_count_system.cpu.dcache.mem_side::system.l2.cpu_side      1506211                       # Packet count per connected master and slave (bytes)
system.tol2bus.pkt_count::total               7440890                       # Packet count per connected master and slave (bytes)
system.tol2bus.pkt_size_system.cpu.icache.mem_side::system.l2.cpu_side     63302560                       # Cumulative packet size per connected master and slave (bytes)
system.tol2bus.pkt_size_system.cpu.dcache.mem_side::system.l2.cpu_side      9890096                       # Cumulative packet size per connected master and slave (bytes)
system.tol2bus.pkt_size::total               73192656                       # Cumulative packet size per connected master and slave (bytes)
system.tol2bus.snoops                          344877                       # Total snoops (count)
system.tol2bus.snoopTraffic                    326400                       # Total snoop traffic (bytes)
system.tol2bus.snoop_fanout::samples          2825387                       # Request fanout histogram
system.tol2bus.snoop_fanout::mean            0.026660                       # Request fanout histogram
system.tol2bus.snoop_fanout::stdev           0.161087                       # Request fanout histogram
system.tol2bus.snoop_fanout::underflows             0      0.00%      0.00% # Request fanout histogram
system.tol2bus.snoop_fanout::0                2750063     97.33%     97.33% # Request fanout histogram
system.tol2bus.snoop_fanout::1                  75324      2.67%    100.00% # Request fanout histogram
system.tol2bus.snoop_fanout::2                      0      0.00%    100.00% # Request fanout histogram
system.tol2bus.snoop_fanout::overflows              0      0.00%    100.00% # Request fanout histogram
system.tol2bus.snoop_fanout::min_value              0                       # Request fanout histogram
system.tol2bus.snoop_fanout::max_value              1                       # Request fanout histogram
system.tol2bus.snoop_fanout::total            2825387                       # Request fanout histogram
system.tol2bus.reqLayer0.occupancy         3527205500                       # Layer occupancy (ticks)
system.tol2bus.reqLayer0.utilization              3.2                       # Layer utilization (%)
system.tol2bus.respLayer0.occupancy        1978269000                       # Layer occupancy (ticks)
system.tol2bus.respLayer0.utilization             1.8                       # Layer utilization (%)
system.tol2bus.respLayer1.occupancy         502241000                       # Layer occupancy (ticks)
system.tol2bus.respLayer1.utilization             0.4                       # Layer utilization (%)

---------- End Simulation Statistics   ----------
