
---------- Begin Simulation Statistics ----------
sim_seconds                                  0.122248                       # Number of seconds simulated
sim_ticks                                122247930500                       # Number of ticks simulated
final_tick                               122247930500                       # Number of ticks from beginning of simulation (restored from checkpoints and never reset)
sim_freq                                 1000000000000                       # Frequency of simulated ticks
host_inst_rate                                1032199                       # Simulator instruction rate (inst/s)
host_op_rate                                  1097337                       # Simulator op (including micro ops) rate (op/s)
host_tick_rate                             2888718546                       # Simulator tick rate (ticks/s)
host_mem_usage                                 662464                       # Number of bytes of host memory used
host_seconds                                    42.32                       # Real time elapsed on the host
sim_insts                                    43681715                       # Number of instructions simulated
sim_ops                                      46438296                       # Number of ops (including micro ops) simulated
system.voltage_domain.voltage                       1                       # Voltage in Volts
system.clk_domain.clock                          1000                       # Clock period in ticks
system.mem_ctrls.pwrStateResidencyTicks::UNDEFINED 122247930500                       # Cumulative time (in ticks) in various power states
system.mem_ctrls.bytes_read::cpu.inst          121152                       # Number of bytes read from this memory
system.mem_ctrls.bytes_read::cpu.data         5137088                       # Number of bytes read from this memory
system.mem_ctrls.bytes_read::total            5258240                       # Number of bytes read from this memory
system.mem_ctrls.bytes_inst_read::cpu.inst       121152                       # Number of instructions bytes read from this memory
system.mem_ctrls.bytes_inst_read::total        121152                       # Number of instructions bytes read from this memory
system.mem_ctrls.bytes_written::writebacks       346272                       # Number of bytes written to this memory
system.mem_ctrls.bytes_written::total          346272                       # Number of bytes written to this memory
system.mem_ctrls.num_reads::cpu.inst             7572                       # Number of read requests responded to by this memory
system.mem_ctrls.num_reads::cpu.data           321068                       # Number of read requests responded to by this memory
system.mem_ctrls.num_reads::total              328640                       # Number of read requests responded to by this memory
system.mem_ctrls.num_writes::writebacks         21642                       # Number of write requests responded to by this memory
system.mem_ctrls.num_writes::total              21642                       # Number of write requests responded to by this memory
system.mem_ctrls.bw_read::cpu.inst             991035                       # Total read bandwidth from this memory (bytes/s)
system.mem_ctrls.bw_read::cpu.data           42021881                       # Total read bandwidth from this memory (bytes/s)
system.mem_ctrls.bw_read::total              43012916                       # Total read bandwidth from this memory (bytes/s)
system.mem_ctrls.bw_inst_read::cpu.inst        991035                       # Instruction read bandwidth from this memory (bytes/s)
system.mem_ctrls.bw_inst_read::total           991035                       # Instruction read bandwidth from this memory (bytes/s)
system.mem_ctrls.bw_write::writebacks         2832539                       # Write bandwidth from this memory (bytes/s)
system.mem_ctrls.bw_write::total              2832539                       # Write bandwidth from this memory (bytes/s)
system.mem_ctrls.bw_total::writebacks         2832539                       # Total bandwidth to/from this memory (bytes/s)
system.mem_ctrls.bw_total::cpu.inst            991035                       # Total bandwidth to/from this memory (bytes/s)
system.mem_ctrls.bw_total::cpu.data          42021881                       # Total bandwidth to/from this memory (bytes/s)
system.mem_ctrls.bw_total::total             45845455                       # Total bandwidth to/from this memory (bytes/s)
system.mem_ctrls.readReqs                      328640                       # Number of read requests accepted
system.mem_ctrls.writeReqs                      21642                       # Number of write requests accepted
system.mem_ctrls.readBursts                    328640                       # Number of DRAM read bursts, including those serviced by the write queue
system.mem_ctrls.writeBursts                    21642                       # Number of DRAM write bursts, including those merged in the write queue
system.mem_ctrls.bytesReadDRAM               20852224                       # Total number of bytes read from DRAM
system.mem_ctrls.bytesReadWrQ                  180736                       # Total number of bytes read from write queue
system.mem_ctrls.bytesWritten                  958080                       # Total number of bytes written to DRAM
system.mem_ctrls.bytesReadSys                 5258240                       # Total read bytes from the system interface side
system.mem_ctrls.bytesWrittenSys               346272                       # Total written bytes from the system interface side
system.mem_ctrls.servicedByWrQ                   2824                       # Number of DRAM read bursts serviced by the write queue
system.mem_ctrls.mergedWrBursts                  6641                       # Number of DRAM write bursts merged with an existing one
system.mem_ctrls.neitherReadNorWriteReqs            0                       # Number of requests that are neither read nor write
system.mem_ctrls.perBankRdBursts::0             60527                       # Per bank write bursts
system.mem_ctrls.perBankRdBursts::1             62183                       # Per bank write bursts
system.mem_ctrls.perBankRdBursts::2             22248                       # Per bank write bursts
system.mem_ctrls.perBankRdBursts::3               584                       # Per bank write bursts
system.mem_ctrls.perBankRdBursts::4               940                       # Per bank write bursts
system.mem_ctrls.perBankRdBursts::5              3815                       # Per bank write bursts
system.mem_ctrls.perBankRdBursts::6              6911                       # Per bank write bursts
system.mem_ctrls.perBankRdBursts::7             18048                       # Per bank write bursts
system.mem_ctrls.perBankRdBursts::8               868                       # Per bank write bursts
system.mem_ctrls.perBankRdBursts::9               939                       # Per bank write bursts
system.mem_ctrls.perBankRdBursts::10              171                       # Per bank write bursts
system.mem_ctrls.perBankRdBursts::11              705                       # Per bank write bursts
system.mem_ctrls.perBankRdBursts::12              705                       # Per bank write bursts
system.mem_ctrls.perBankRdBursts::13            29276                       # Per bank write bursts
system.mem_ctrls.perBankRdBursts::14            58054                       # Per bank write bursts
system.mem_ctrls.perBankRdBursts::15            59842                       # Per bank write bursts
system.mem_ctrls.perBankWrBursts::0               287                       # Per bank write bursts
system.mem_ctrls.perBankWrBursts::1               272                       # Per bank write bursts
system.mem_ctrls.perBankWrBursts::2               418                       # Per bank write bursts
system.mem_ctrls.perBankWrBursts::3                12                       # Per bank write bursts
system.mem_ctrls.perBankWrBursts::4                23                       # Per bank write bursts
system.mem_ctrls.perBankWrBursts::5               240                       # Per bank write bursts
system.mem_ctrls.perBankWrBursts::6              3164                       # Per bank write bursts
system.mem_ctrls.perBankWrBursts::7              9721                       # Per bank write bursts
system.mem_ctrls.perBankWrBursts::8                 0                       # Per bank write bursts
system.mem_ctrls.perBankWrBursts::9                 0                       # Per bank write bursts
system.mem_ctrls.perBankWrBursts::10                0                       # Per bank write bursts
system.mem_ctrls.perBankWrBursts::11                0                       # Per bank write bursts
system.mem_ctrls.perBankWrBursts::12              111                       # Per bank write bursts
system.mem_ctrls.perBankWrBursts::13              233                       # Per bank write bursts
system.mem_ctrls.perBankWrBursts::14              248                       # Per bank write bursts
system.mem_ctrls.perBankWrBursts::15              241                       # Per bank write bursts
system.mem_ctrls.numRdRetry                         0                       # Number of times read queue was full causing retry
system.mem_ctrls.numWrRetry                         0                       # Number of times write queue was full causing retry
system.mem_ctrls.totGap                  122247852500                       # Total gap between requests
system.mem_ctrls.readPktSize::0                     0                       # Read request sizes (log2)
system.mem_ctrls.readPktSize::1                     0                       # Read request sizes (log2)
system.mem_ctrls.readPktSize::2                     0                       # Read request sizes (log2)
system.mem_ctrls.readPktSize::3                     0                       # Read request sizes (log2)
system.mem_ctrls.readPktSize::4                328640                       # Read request sizes (log2)
system.mem_ctrls.readPktSize::5                     0                       # Read request sizes (log2)
system.mem_ctrls.readPktSize::6                     0                       # Read request sizes (log2)
system.mem_ctrls.writePktSize::0                    0                       # Write request sizes (log2)
system.mem_ctrls.writePktSize::1                    0                       # Write request sizes (log2)
system.mem_ctrls.writePktSize::2                    0                       # Write request sizes (log2)
system.mem_ctrls.writePktSize::3                    0                       # Write request sizes (log2)
system.mem_ctrls.writePktSize::4                21642                       # Write request sizes (log2)
system.mem_ctrls.writePktSize::5                    0                       # Write request sizes (log2)
system.mem_ctrls.writePktSize::6                    0                       # Write request sizes (log2)
system.mem_ctrls.rdQLenPdf::0                  325741                       # What read queue length does an incoming req see
system.mem_ctrls.rdQLenPdf::1                      75                       # What read queue length does an incoming req see
system.mem_ctrls.rdQLenPdf::2                       0                       # What read queue length does an incoming req see
system.mem_ctrls.rdQLenPdf::3                       0                       # What read queue length does an incoming req see
system.mem_ctrls.rdQLenPdf::4                       0                       # What read queue length does an incoming req see
system.mem_ctrls.rdQLenPdf::5                       0                       # What read queue length does an incoming req see
system.mem_ctrls.rdQLenPdf::6                       0                       # What read queue length does an incoming req see
system.mem_ctrls.rdQLenPdf::7                       0                       # What read queue length does an incoming req see
system.mem_ctrls.rdQLenPdf::8                       0                       # What read queue length does an incoming req see
system.mem_ctrls.rdQLenPdf::9                       0                       # What read queue length does an incoming req see
system.mem_ctrls.rdQLenPdf::10                      0                       # What read queue length does an incoming req see
system.mem_ctrls.rdQLenPdf::11                      0                       # What read queue length does an incoming req see
system.mem_ctrls.rdQLenPdf::12                      0                       # What read queue length does an incoming req see
system.mem_ctrls.rdQLenPdf::13                      0                       # What read queue length does an incoming req see
system.mem_ctrls.rdQLenPdf::14                      0                       # What read queue length does an incoming req see
system.mem_ctrls.rdQLenPdf::15                      0                       # What read queue length does an incoming req see
system.mem_ctrls.rdQLenPdf::16                      0                       # What read queue length does an incoming req see
system.mem_ctrls.rdQLenPdf::17                      0                       # What read queue length does an incoming req see
system.mem_ctrls.rdQLenPdf::18                      0                       # What read queue length does an incoming req see
system.mem_ctrls.rdQLenPdf::19                      0                       # What read queue length does an incoming req see
system.mem_ctrls.rdQLenPdf::20                      0                       # What read queue length does an incoming req see
system.mem_ctrls.rdQLenPdf::21                      0                       # What read queue length does an incoming req see
system.mem_ctrls.rdQLenPdf::22                      0                       # What read queue length does an incoming req see
system.mem_ctrls.rdQLenPdf::23                      0                       # What read queue length does an incoming req see
system.mem_ctrls.rdQLenPdf::24                      0                       # What read queue length does an incoming req see
system.mem_ctrls.rdQLenPdf::25                      0                       # What read queue length does an incoming req see
system.mem_ctrls.rdQLenPdf::26                      0                       # What read queue length does an incoming req see
system.mem_ctrls.rdQLenPdf::27                      0                       # What read queue length does an incoming req see
system.mem_ctrls.rdQLenPdf::28                      0                       # What read queue length does an incoming req see
system.mem_ctrls.rdQLenPdf::29                      0                       # What read queue length does an incoming req see
system.mem_ctrls.rdQLenPdf::30                      0                       # What read queue length does an incoming req see
system.mem_ctrls.rdQLenPdf::31                      0                       # What read queue length does an incoming req see
system.mem_ctrls.wrQLenPdf::0                       1                       # What write queue length does an incoming req see
system.mem_ctrls.wrQLenPdf::1                       1                       # What write queue length does an incoming req see
system.mem_ctrls.wrQLenPdf::2                       1                       # What write queue length does an incoming req see
system.mem_ctrls.wrQLenPdf::3                       1                       # What write queue length does an incoming req see
system.mem_ctrls.wrQLenPdf::4                       1                       # What write queue length does an incoming req see
system.mem_ctrls.wrQLenPdf::5                       1                       # What write queue length does an incoming req see
system.mem_ctrls.wrQLenPdf::6                       1                       # What write queue length does an incoming req see
system.mem_ctrls.wrQLenPdf::7                       1                       # What write queue length does an incoming req see
system.mem_ctrls.wrQLenPdf::8                       1                       # What write queue length does an incoming req see
system.mem_ctrls.wrQLenPdf::9                       1                       # What write queue length does an incoming req see
system.mem_ctrls.wrQLenPdf::10                      1                       # What write queue length does an incoming req see
system.mem_ctrls.wrQLenPdf::11                      1                       # What write queue length does an incoming req see
system.mem_ctrls.wrQLenPdf::12                      1                       # What write queue length does an incoming req see
system.mem_ctrls.wrQLenPdf::13                      1                       # What write queue length does an incoming req see
system.mem_ctrls.wrQLenPdf::14                      1                       # What write queue length does an incoming req see
system.mem_ctrls.wrQLenPdf::15                    730                       # What write queue length does an incoming req see
system.mem_ctrls.wrQLenPdf::16                    735                       # What write queue length does an incoming req see
system.mem_ctrls.wrQLenPdf::17                    840                       # What write queue length does an incoming req see
system.mem_ctrls.wrQLenPdf::18                    846                       # What write queue length does an incoming req see
system.mem_ctrls.wrQLenPdf::19                    846                       # What write queue length does an incoming req see
system.mem_ctrls.wrQLenPdf::20                    845                       # What write queue length does an incoming req see
system.mem_ctrls.wrQLenPdf::21                    846                       # What write queue length does an incoming req see
system.mem_ctrls.wrQLenPdf::22                    848                       # What write queue length does an incoming req see
system.mem_ctrls.wrQLenPdf::23                    845                       # What write queue length does an incoming req see
system.mem_ctrls.wrQLenPdf::24                    845                       # What write queue length does an incoming req see
system.mem_ctrls.wrQLenPdf::25                    845                       # What write queue length does an incoming req see
system.mem_ctrls.wrQLenPdf::26                    845                       # What write queue length does an incoming req see
system.mem_ctrls.wrQLenPdf::27                    845                       # What write queue length does an incoming req see
system.mem_ctrls.wrQLenPdf::28                    846                       # What write queue length does an incoming req see
system.mem_ctrls.wrQLenPdf::29                    846                       # What write queue length does an incoming req see
system.mem_ctrls.wrQLenPdf::30                    845                       # What write queue length does an incoming req see
system.mem_ctrls.wrQLenPdf::31                    844                       # What write queue length does an incoming req see
system.mem_ctrls.wrQLenPdf::32                    844                       # What write queue length does an incoming req see
system.mem_ctrls.wrQLenPdf::33                      0                       # What write queue length does an incoming req see
system.mem_ctrls.wrQLenPdf::34                      0                       # What write queue length does an incoming req see
system.mem_ctrls.wrQLenPdf::35                      0                       # What write queue length does an incoming req see
system.mem_ctrls.wrQLenPdf::36                      0                       # What write queue length does an incoming req see
system.mem_ctrls.wrQLenPdf::37                      0                       # What write queue length does an incoming req see
system.mem_ctrls.wrQLenPdf::38                      0                       # What write queue length does an incoming req see
system.mem_ctrls.wrQLenPdf::39                      0                       # What write queue length does an incoming req see
system.mem_ctrls.wrQLenPdf::40                      0                       # What write queue length does an incoming req see
system.mem_ctrls.wrQLenPdf::41                      0                       # What write queue length does an incoming req see
system.mem_ctrls.wrQLenPdf::42                      0                       # What write queue length does an incoming req see
system.mem_ctrls.wrQLenPdf::43                      0                       # What write queue length does an incoming req see
system.mem_ctrls.wrQLenPdf::44                      0                       # What write queue length does an incoming req see
system.mem_ctrls.wrQLenPdf::45                      0                       # What write queue length does an incoming req see
system.mem_ctrls.wrQLenPdf::46                      0                       # What write queue length does an incoming req see
system.mem_ctrls.wrQLenPdf::47                      0                       # What write queue length does an incoming req see
system.mem_ctrls.wrQLenPdf::48                      0                       # What write queue length does an incoming req see
system.mem_ctrls.wrQLenPdf::49                      0                       # What write queue length does an incoming req see
system.mem_ctrls.wrQLenPdf::50                      0                       # What write queue length does an incoming req see
system.mem_ctrls.wrQLenPdf::51                      0                       # What write queue length does an incoming req see
system.mem_ctrls.wrQLenPdf::52                      0                       # What write queue length does an incoming req see
system.mem_ctrls.wrQLenPdf::53                      0                       # What write queue length does an incoming req see
system.mem_ctrls.wrQLenPdf::54                      0                       # What write queue length does an incoming req see
system.mem_ctrls.wrQLenPdf::55                      0                       # What write queue length does an incoming req see
system.mem_ctrls.wrQLenPdf::56                      0                       # What write queue length does an incoming req see
system.mem_ctrls.wrQLenPdf::57                      0                       # What write queue length does an incoming req see
system.mem_ctrls.wrQLenPdf::58                      0                       # What write queue length does an incoming req see
system.mem_ctrls.wrQLenPdf::59                      0                       # What write queue length does an incoming req see
system.mem_ctrls.wrQLenPdf::60                      0                       # What write queue length does an incoming req see
system.mem_ctrls.wrQLenPdf::61                      0                       # What write queue length does an incoming req see
system.mem_ctrls.wrQLenPdf::62                      0                       # What write queue length does an incoming req see
system.mem_ctrls.wrQLenPdf::63                      0                       # What write queue length does an incoming req see
system.mem_ctrls.bytesPerActivate::samples        45042                       # Bytes accessed per row activation
system.mem_ctrls.bytesPerActivate::mean    484.205852                       # Bytes accessed per row activation
system.mem_ctrls.bytesPerActivate::gmean   293.822722                       # Bytes accessed per row activation
system.mem_ctrls.bytesPerActivate::stdev   392.143193                       # Bytes accessed per row activation
system.mem_ctrls.bytesPerActivate::0-127        11611     25.78%     25.78% # Bytes accessed per row activation
system.mem_ctrls.bytesPerActivate::128-255         7282     16.17%     41.95% # Bytes accessed per row activation
system.mem_ctrls.bytesPerActivate::256-383         3115      6.92%     48.86% # Bytes accessed per row activation
system.mem_ctrls.bytesPerActivate::384-511         2336      5.19%     54.05% # Bytes accessed per row activation
system.mem_ctrls.bytesPerActivate::512-639         3177      7.05%     61.10% # Bytes accessed per row activation
system.mem_ctrls.bytesPerActivate::640-767         2956      6.56%     67.66% # Bytes accessed per row activation
system.mem_ctrls.bytesPerActivate::768-895         1734      3.85%     71.51% # Bytes accessed per row activation
system.mem_ctrls.bytesPerActivate::896-1023         1108      2.46%     73.97% # Bytes accessed per row activation
system.mem_ctrls.bytesPerActivate::1024-1151        11723     26.03%    100.00% # Bytes accessed per row activation
system.mem_ctrls.bytesPerActivate::total        45042                       # Bytes accessed per row activation
system.mem_ctrls.rdPerTurnAround::samples          844                       # Reads before turning the bus around for writes
system.mem_ctrls.rdPerTurnAround::mean     385.183649                       # Reads before turning the bus around for writes
system.mem_ctrls.rdPerTurnAround::gmean    222.771600                       # Reads before turning the bus around for writes
system.mem_ctrls.rdPerTurnAround::stdev    412.071411                       # Reads before turning the bus around for writes
system.mem_ctrls.rdPerTurnAround::0-127           313     37.09%     37.09% # Reads before turning the bus around for writes
system.mem_ctrls.rdPerTurnAround::128-255           86     10.19%     47.27% # Reads before turning the bus around for writes
system.mem_ctrls.rdPerTurnAround::256-383           87     10.31%     57.58% # Reads before turning the bus around for writes
system.mem_ctrls.rdPerTurnAround::384-511          109     12.91%     70.50% # Reads before turning the bus around for writes
system.mem_ctrls.rdPerTurnAround::512-639          106     12.56%     83.06% # Reads before turning the bus around for writes
system.mem_ctrls.rdPerTurnAround::640-767           50      5.92%     88.98% # Reads before turning the bus around for writes
system.mem_ctrls.rdPerTurnAround::768-895           31      3.67%     92.65% # Reads before turning the bus around for writes
system.mem_ctrls.rdPerTurnAround::896-1023           18      2.13%     94.79% # Reads before turning the bus around for writes
system.mem_ctrls.rdPerTurnAround::1024-1151           12      1.42%     96.21% # Reads before turning the bus around for writes
system.mem_ctrls.rdPerTurnAround::1152-1279            2      0.24%     96.45% # Reads before turning the bus around for writes
system.mem_ctrls.rdPerTurnAround::1280-1407            7      0.83%     97.27% # Reads before turning the bus around for writes
system.mem_ctrls.rdPerTurnAround::1408-1535            2      0.24%     97.51% # Reads before turning the bus around for writes
system.mem_ctrls.rdPerTurnAround::1536-1663            2      0.24%     97.75% # Reads before turning the bus around for writes
system.mem_ctrls.rdPerTurnAround::1664-1791            3      0.36%     98.10% # Reads before turning the bus around for writes
system.mem_ctrls.rdPerTurnAround::1792-1919            5      0.59%     98.70% # Reads before turning the bus around for writes
system.mem_ctrls.rdPerTurnAround::1920-2047            3      0.36%     99.05% # Reads before turning the bus around for writes
system.mem_ctrls.rdPerTurnAround::2048-2175            1      0.12%     99.17% # Reads before turning the bus around for writes
system.mem_ctrls.rdPerTurnAround::2176-2303            1      0.12%     99.29% # Reads before turning the bus around for writes
system.mem_ctrls.rdPerTurnAround::2432-2559            1      0.12%     99.41% # Reads before turning the bus around for writes
system.mem_ctrls.rdPerTurnAround::2688-2815            3      0.36%     99.76% # Reads before turning the bus around for writes
system.mem_ctrls.rdPerTurnAround::2944-3071            1      0.12%     99.88% # Reads before turning the bus around for writes
system.mem_ctrls.rdPerTurnAround::3328-3455            1      0.12%    100.00% # Reads before turning the bus around for writes
system.mem_ctrls.rdPerTurnAround::total           844                       # Reads before turning the bus around for writes
system.mem_ctrls.wrPerTurnAround::samples          844                       # Writes before turning the bus around for reads
system.mem_ctrls.wrPerTurnAround::mean      17.736967                       # Writes before turning the bus around for reads
system.mem_ctrls.wrPerTurnAround::gmean     17.723199                       # Writes before turning the bus around for reads
system.mem_ctrls.wrPerTurnAround::stdev      0.679829                       # Writes before turning the bus around for reads
system.mem_ctrls.wrPerTurnAround::16              110     13.03%     13.03% # Writes before turning the bus around for reads
system.mem_ctrls.wrPerTurnAround::17                5      0.59%     13.63% # Writes before turning the bus around for reads
system.mem_ctrls.wrPerTurnAround::18              726     86.02%     99.64% # Writes before turning the bus around for reads
system.mem_ctrls.wrPerTurnAround::19                3      0.36%    100.00% # Writes before turning the bus around for reads
system.mem_ctrls.wrPerTurnAround::total           844                       # Writes before turning the bus around for reads
system.mem_ctrls.totQLat                   5450677750                       # Total ticks spent queuing
system.mem_ctrls.totMemAccLat             11559727750                       # Total ticks spent from burst creation until serviced by the DRAM
system.mem_ctrls.totBusLat                 1629080000                       # Total ticks spent in databus transfers
system.mem_ctrls.avgQLat                     16729.31                       # Average queueing delay per DRAM burst
system.mem_ctrls.avgBusLat                    5000.00                       # Average bus latency per DRAM burst
system.mem_ctrls.avgMemAccLat                35479.31                       # Average memory access latency per DRAM burst
system.mem_ctrls.avgRdBW                       170.57                       # Average DRAM read bandwidth in MiByte/s
system.mem_ctrls.avgWrBW                         7.84                       # Average achieved write bandwidth in MiByte/s
system.mem_ctrls.avgRdBWSys                     43.01                       # Average system read bandwidth in MiByte/s
system.mem_ctrls.avgWrBWSys                      2.83                       # Average system write bandwidth in MiByte/s
system.mem_ctrls.peakBW                      12800.00                       # Theoretical peak bandwidth in MiByte/s
system.mem_ctrls.busUtil                         1.39                       # Data bus utilization in percentage
system.mem_ctrls.busUtilRead                     1.33                       # Data bus utilization in percentage for reads
system.mem_ctrls.busUtilWrite                    0.06                       # Data bus utilization in percentage for writes
system.mem_ctrls.avgRdQLen                       1.00                       # Average read queue length when enqueuing
system.mem_ctrls.avgWrQLen                      24.60                       # Average write queue length when enqueuing
system.mem_ctrls.readRowHits                   282132                       # Number of row buffer hits during reads
system.mem_ctrls.writeRowHits                   13605                       # Number of row buffer hits during writes
system.mem_ctrls.readRowHitRate                 86.59                       # Row buffer hit rate for reads
system.mem_ctrls.writeRowHitRate                90.69                       # Row buffer hit rate for writes
system.mem_ctrls.avgGap                     348998.39                       # Average gap between requests
system.mem_ctrls.pageHitRate                    86.77                       # Row buffer hit rate, read and write combined
system.mem_ctrls_0.actEnergy                203718480                       # Energy for activate commands per rank (pJ)
system.mem_ctrls_0.preEnergy                108263760                       # Energy for precharge commands per rank (pJ)
system.mem_ctrls_0.readEnergy              1251327840                       # Energy for read commands per rank (pJ)
system.mem_ctrls_0.writeEnergy               73795140                       # Energy for write commands per rank (pJ)
system.mem_ctrls_0.refreshEnergy         9931967760.000002                       # Energy for refresh commands per rank (pJ)
system.mem_ctrls_0.actBackEnergy           4730785110                       # Energy for active background per rank (pJ)
system.mem_ctrls_0.preBackEnergy            346370400                       # Energy for precharge background per rank (pJ)
system.mem_ctrls_0.actPowerDownEnergy     32526188730                       # Energy for active power-down per rank (pJ)
system.mem_ctrls_0.prePowerDownEnergy     12632928480                       # Energy for precharge power-down per rank (pJ)
system.mem_ctrls_0.selfRefreshEnergy       2403793380                       # Energy for self refresh per rank (pJ)
system.mem_ctrls_0.totalEnergy            64212290820                       # Total energy per rank (pJ)
system.mem_ctrls_0.averagePower            525.262805                       # Core power per rank (mW)
system.mem_ctrls_0.totalIdleTime         110963398500                       # Total Idle time Per DRAM Rank
system.mem_ctrls_0.memoryStateTime::IDLE    464585500                       # Time in different power states
system.mem_ctrls_0.memoryStateTime::REF    4210880000                       # Time in different power states
system.mem_ctrls_0.memoryStateTime::SREF   6736765500                       # Time in different power states
system.mem_ctrls_0.memoryStateTime::PRE_PDN  32898092000                       # Time in different power states
system.mem_ctrls_0.memoryStateTime::ACT    6608848500                       # Time in different power states
system.mem_ctrls_0.memoryStateTime::ACT_PDN  71328759000                       # Time in different power states
system.mem_ctrls_1.actEnergy                117931380                       # Energy for activate commands per rank (pJ)
system.mem_ctrls_1.preEnergy                 62670630                       # Energy for precharge commands per rank (pJ)
system.mem_ctrls_1.readEnergy              1074998400                       # Energy for read commands per rank (pJ)
system.mem_ctrls_1.writeEnergy                4348260                       # Energy for write commands per rank (pJ)
system.mem_ctrls_1.refreshEnergy         7557613440.000001                       # Energy for refresh commands per rank (pJ)
system.mem_ctrls_1.actBackEnergy           3361030650                       # Energy for active background per rank (pJ)
system.mem_ctrls_1.preBackEnergy            342104640                       # Energy for precharge background per rank (pJ)
system.mem_ctrls_1.actPowerDownEnergy     22841955420                       # Energy for active power-down per rank (pJ)
system.mem_ctrls_1.prePowerDownEnergy      9568042560                       # Energy for precharge power-down per rank (pJ)
system.mem_ctrls_1.selfRefreshEnergy      10304469000                       # Energy for self refresh per rank (pJ)
system.mem_ctrls_1.totalEnergy            55236361680                       # Total energy per rank (pJ)
system.mem_ctrls_1.averagePower            451.838828                       # Core power per rank (mW)
system.mem_ctrls_1.totalIdleTime         113983842250                       # Total Idle time Per DRAM Rank
system.mem_ctrls_1.memoryStateTime::IDLE    531981000                       # Time in different power states
system.mem_ctrls_1.memoryStateTime::REF    3207784000                       # Time in different power states
system.mem_ctrls_1.memoryStateTime::SREF  38974898000                       # Time in different power states
system.mem_ctrls_1.memoryStateTime::PRE_PDN  24916689000                       # Time in different power states
system.mem_ctrls_1.memoryStateTime::ACT    4524281500                       # Time in different power states
system.mem_ctrls_1.memoryStateTime::ACT_PDN  50092297000                       # Time in different power states
system.pwrStateResidencyTicks::UNDEFINED 122247930500                       # Cumulative time (in ticks) in various power states
system.cpu_voltage_domain.voltage                   1                       # Voltage in Volts
system.cpu_clk_domain.clock                       500                       # Clock period in ticks
system.cpu.dstage2_mmu.stage2_tlb.walker.pwrStateResidencyTicks::UNDEFINED 122247930500                       # Cumulative time (in ticks) in various power states
system.cpu.dstage2_mmu.stage2_tlb.walker.walks            0                       # Table walker walks requested
system.cpu.dstage2_mmu.stage2_tlb.walker.walkRequestOrigin_Requested::Data            0                       # Table walker requests started/completed, data/inst
system.cpu.dstage2_mmu.stage2_tlb.walker.walkRequestOrigin_Requested::Inst            0                       # Table walker requests started/completed, data/inst
system.cpu.dstage2_mmu.stage2_tlb.walker.walkRequestOrigin_Requested::total            0                       # Table walker requests started/completed, data/inst
system.cpu.dstage2_mmu.stage2_tlb.walker.walkRequestOrigin_Completed::Data            0                       # Table walker requests started/completed, data/inst
system.cpu.dstage2_mmu.stage2_tlb.walker.walkRequestOrigin_Completed::Inst            0                       # Table walker requests started/completed, data/inst
system.cpu.dstage2_mmu.stage2_tlb.walker.walkRequestOrigin_Completed::total            0                       # Table walker requests started/completed, data/inst
system.cpu.dstage2_mmu.stage2_tlb.walker.walkRequestOrigin::total            0                       # Table walker requests started/completed, data/inst
system.cpu.dstage2_mmu.stage2_tlb.inst_hits            0                       # ITB inst hits
system.cpu.dstage2_mmu.stage2_tlb.inst_misses            0                       # ITB inst misses
system.cpu.dstage2_mmu.stage2_tlb.read_hits            0                       # DTB read hits
system.cpu.dstage2_mmu.stage2_tlb.read_misses            0                       # DTB read misses
system.cpu.dstage2_mmu.stage2_tlb.write_hits            0                       # DTB write hits
system.cpu.dstage2_mmu.stage2_tlb.write_misses            0                       # DTB write misses
system.cpu.dstage2_mmu.stage2_tlb.flush_tlb            0                       # Number of times complete TLB was flushed
system.cpu.dstage2_mmu.stage2_tlb.flush_tlb_mva            0                       # Number of times TLB was flushed by MVA
system.cpu.dstage2_mmu.stage2_tlb.flush_tlb_mva_asid            0                       # Number of times TLB was flushed by MVA & ASID
system.cpu.dstage2_mmu.stage2_tlb.flush_tlb_asid            0                       # Number of times TLB was flushed by ASID
system.cpu.dstage2_mmu.stage2_tlb.flush_entries            0                       # Number of entries that have been flushed from TLB
system.cpu.dstage2_mmu.stage2_tlb.align_faults            0                       # Number of TLB faults due to alignment restrictions
system.cpu.dstage2_mmu.stage2_tlb.prefetch_faults            0                       # Number of TLB faults due to prefetch
system.cpu.dstage2_mmu.stage2_tlb.domain_faults            0                       # Number of TLB faults due to domain restrictions
system.cpu.dstage2_mmu.stage2_tlb.perms_faults            0                       # Number of TLB faults due to permissions restrictions
system.cpu.dstage2_mmu.stage2_tlb.read_accesses            0                       # DTB read accesses
system.cpu.dstage2_mmu.stage2_tlb.write_accesses            0                       # DTB write accesses
system.cpu.dstage2_mmu.stage2_tlb.inst_accesses            0                       # ITB inst accesses
system.cpu.dstage2_mmu.stage2_tlb.hits              0                       # DTB hits
system.cpu.dstage2_mmu.stage2_tlb.misses            0                       # DTB misses
system.cpu.dstage2_mmu.stage2_tlb.accesses            0                       # DTB accesses
system.cpu.dtb.walker.pwrStateResidencyTicks::UNDEFINED 122247930500                       # Cumulative time (in ticks) in various power states
system.cpu.dtb.walker.walks                         0                       # Table walker walks requested
system.cpu.dtb.walker.walkRequestOrigin_Requested::Data            0                       # Table walker requests started/completed, data/inst
system.cpu.dtb.walker.walkRequestOrigin_Requested::Inst            0                       # Table walker requests started/completed, data/inst
system.cpu.dtb.walker.walkRequestOrigin_Requested::total            0                       # Table walker requests started/completed, data/inst
system.cpu.dtb.walker.walkRequestOrigin_Completed::Data            0                       # Table walker requests started/completed, data/inst
system.cpu.dtb.walker.walkRequestOrigin_Completed::Inst            0                       # Table walker requests started/completed, data/inst
system.cpu.dtb.walker.walkRequestOrigin_Completed::total            0                       # Table walker requests started/completed, data/inst
system.cpu.dtb.walker.walkRequestOrigin::total            0                       # Table walker requests started/completed, data/inst
system.cpu.dtb.inst_hits                            0                       # ITB inst hits
system.cpu.dtb.inst_misses                          0                       # ITB inst misses
system.cpu.dtb.read_hits                            0                       # DTB read hits
system.cpu.dtb.read_misses                          0                       # DTB read misses
system.cpu.dtb.write_hits                           0                       # DTB write hits
system.cpu.dtb.write_misses                         0                       # DTB write misses
system.cpu.dtb.flush_tlb                            0                       # Number of times complete TLB was flushed
system.cpu.dtb.flush_tlb_mva                        0                       # Number of times TLB was flushed by MVA
system.cpu.dtb.flush_tlb_mva_asid                   0                       # Number of times TLB was flushed by MVA & ASID
system.cpu.dtb.flush_tlb_asid                       0                       # Number of times TLB was flushed by ASID
system.cpu.dtb.flush_entries                        0                       # Number of entries that have been flushed from TLB
system.cpu.dtb.align_faults                         0                       # Number of TLB faults due to alignment restrictions
system.cpu.dtb.prefetch_faults                      0                       # Number of TLB faults due to prefetch
system.cpu.dtb.domain_faults                        0                       # Number of TLB faults due to domain restrictions
system.cpu.dtb.perms_faults                         0                       # Number of TLB faults due to permissions restrictions
system.cpu.dtb.read_accesses                        0                       # DTB read accesses
system.cpu.dtb.write_accesses                       0                       # DTB write accesses
system.cpu.dtb.inst_accesses                        0                       # ITB inst accesses
system.cpu.dtb.hits                                 0                       # DTB hits
system.cpu.dtb.misses                               0                       # DTB misses
system.cpu.dtb.accesses                             0                       # DTB accesses
system.cpu.istage2_mmu.stage2_tlb.walker.pwrStateResidencyTicks::UNDEFINED 122247930500                       # Cumulative time (in ticks) in various power states
system.cpu.istage2_mmu.stage2_tlb.walker.walks            0                       # Table walker walks requested
system.cpu.istage2_mmu.stage2_tlb.walker.walkRequestOrigin_Requested::Data            0                       # Table walker requests started/completed, data/inst
system.cpu.istage2_mmu.stage2_tlb.walker.walkRequestOrigin_Requested::Inst            0                       # Table walker requests started/completed, data/inst
system.cpu.istage2_mmu.stage2_tlb.walker.walkRequestOrigin_Requested::total            0                       # Table walker requests started/completed, data/inst
system.cpu.istage2_mmu.stage2_tlb.walker.walkRequestOrigin_Completed::Data            0                       # Table walker requests started/completed, data/inst
system.cpu.istage2_mmu.stage2_tlb.walker.walkRequestOrigin_Completed::Inst            0                       # Table walker requests started/completed, data/inst
system.cpu.istage2_mmu.stage2_tlb.walker.walkRequestOrigin_Completed::total            0                       # Table walker requests started/completed, data/inst
system.cpu.istage2_mmu.stage2_tlb.walker.walkRequestOrigin::total            0                       # Table walker requests started/completed, data/inst
system.cpu.istage2_mmu.stage2_tlb.inst_hits            0                       # ITB inst hits
system.cpu.istage2_mmu.stage2_tlb.inst_misses            0                       # ITB inst misses
system.cpu.istage2_mmu.stage2_tlb.read_hits            0                       # DTB read hits
system.cpu.istage2_mmu.stage2_tlb.read_misses            0                       # DTB read misses
system.cpu.istage2_mmu.stage2_tlb.write_hits            0                       # DTB write hits
system.cpu.istage2_mmu.stage2_tlb.write_misses            0                       # DTB write misses
system.cpu.istage2_mmu.stage2_tlb.flush_tlb            0                       # Number of times complete TLB was flushed
system.cpu.istage2_mmu.stage2_tlb.flush_tlb_mva            0                       # Number of times TLB was flushed by MVA
system.cpu.istage2_mmu.stage2_tlb.flush_tlb_mva_asid            0                       # Number of times TLB was flushed by MVA & ASID
system.cpu.istage2_mmu.stage2_tlb.flush_tlb_asid            0                       # Number of times TLB was flushed by ASID
system.cpu.istage2_mmu.stage2_tlb.flush_entries            0                       # Number of entries that have been flushed from TLB
system.cpu.istage2_mmu.stage2_tlb.align_faults            0                       # Number of TLB faults due to alignment restrictions
system.cpu.istage2_mmu.stage2_tlb.prefetch_faults            0                       # Number of TLB faults due to prefetch
system.cpu.istage2_mmu.stage2_tlb.domain_faults            0                       # Number of TLB faults due to domain restrictions
system.cpu.istage2_mmu.stage2_tlb.perms_faults            0                       # Number of TLB faults due to permissions restrictions
system.cpu.istage2_mmu.stage2_tlb.read_accesses            0                       # DTB read accesses
system.cpu.istage2_mmu.stage2_tlb.write_accesses            0                       # DTB write accesses
system.cpu.istage2_mmu.stage2_tlb.inst_accesses            0                       # ITB inst accesses
system.cpu.istage2_mmu.stage2_tlb.hits              0                       # DTB hits
system.cpu.istage2_mmu.stage2_tlb.misses            0                       # DTB misses
system.cpu.istage2_mmu.stage2_tlb.accesses            0                       # DTB accesses
system.cpu.itb.walker.pwrStateResidencyTicks::UNDEFINED 122247930500                       # Cumulative time (in ticks) in various power states
system.cpu.itb.walker.walks                         0                       # Table walker walks requested
system.cpu.itb.walker.walkRequestOrigin_Requested::Data            0                       # Table walker requests started/completed, data/inst
system.cpu.itb.walker.walkRequestOrigin_Requested::Inst            0                       # Table walker requests started/completed, data/inst
system.cpu.itb.walker.walkRequestOrigin_Requested::total            0                       # Table walker requests started/completed, data/inst
system.cpu.itb.walker.walkRequestOrigin_Completed::Data            0                       # Table walker requests started/completed, data/inst
system.cpu.itb.walker.walkRequestOrigin_Completed::Inst            0                       # Table walker requests started/completed, data/inst
system.cpu.itb.walker.walkRequestOrigin_Completed::total            0                       # Table walker requests started/completed, data/inst
system.cpu.itb.walker.walkRequestOrigin::total            0                       # Table walker requests started/completed, data/inst
system.cpu.itb.inst_hits                            0                       # ITB inst hits
system.cpu.itb.inst_misses                          0                       # ITB inst misses
system.cpu.itb.read_hits                            0                       # DTB read hits
system.cpu.itb.read_misses                          0                       # DTB read misses
system.cpu.itb.write_hits                           0                       # DTB write hits
system.cpu.itb.write_misses                         0                       # DTB write misses
system.cpu.itb.flush_tlb                            0                       # Number of times complete TLB was flushed
system.cpu.itb.flush_tlb_mva                        0                       # Number of times TLB was flushed by MVA
system.cpu.itb.flush_tlb_mva_asid                   0                       # Number of times TLB was flushed by MVA & ASID
system.cpu.itb.flush_tlb_asid                       0                       # Number of times TLB was flushed by ASID
system.cpu.itb.flush_entries                        0                       # Number of entries that have been flushed from TLB
system.cpu.itb.align_faults                         0                       # Number of TLB faults due to alignment restrictions
system.cpu.itb.prefetch_faults                      0                       # Number of TLB faults due to prefetch
system.cpu.itb.domain_faults                        0                       # Number of TLB faults due to domain restrictions
system.cpu.itb.perms_faults                         0                       # Number of TLB faults due to permissions restrictions
system.cpu.itb.read_accesses                        0                       # DTB read accesses
system.cpu.itb.write_accesses                       0                       # DTB write accesses
system.cpu.itb.inst_accesses                        0                       # ITB inst accesses
system.cpu.itb.hits                                 0                       # DTB hits
system.cpu.itb.misses                               0                       # DTB misses
system.cpu.itb.accesses                             0                       # DTB accesses
system.cpu.workload.numSyscalls                   239                       # Number of system calls
system.cpu.pwrStateResidencyTicks::ON    122247930500                       # Cumulative time (in ticks) in various power states
system.cpu.numCycles                        244495861                       # number of cpu cycles simulated
system.cpu.numWorkItemsStarted                      0                       # number of work items this cpu started
system.cpu.numWorkItemsCompleted                    0                       # number of work items this cpu completed
system.cpu.committedInsts                    43681715                       # Number of instructions committed
system.cpu.committedOps                      46438296                       # Number of ops (including micro ops) committed
system.cpu.num_int_alu_accesses              36550911                       # Number of integer alu accesses
system.cpu.num_fp_alu_accesses                     16                       # Number of float alu accesses
system.cpu.num_vec_alu_accesses                     0                       # Number of vector alu accesses
system.cpu.num_func_calls                      479840                       # number of times a function call or return occured
system.cpu.num_conditional_control_insts      9756862                       # number of instructions that are conditional controls
system.cpu.num_int_insts                     36550911                       # number of integer instructions
system.cpu.num_fp_insts                            16                       # number of float instructions
system.cpu.num_vec_insts                            0                       # number of vector instructions
system.cpu.num_int_register_reads            62405331                       # number of times the integer registers were read
system.cpu.num_int_register_writes           21331325                       # number of times the integer registers were written
system.cpu.num_fp_register_reads                   16                       # number of times the floating registers were read
system.cpu.num_fp_register_writes                   0                       # number of times the floating registers were written
system.cpu.num_vec_register_reads                   0                       # number of times the vector registers were read
system.cpu.num_vec_register_writes                  0                       # number of times the vector registers were written
system.cpu.num_cc_register_reads            167328390                       # number of times the CC registers were read
system.cpu.num_cc_register_writes            30215577                       # number of times the CC registers were written
system.cpu.num_mem_refs                      14199991                       # number of memory refs
system.cpu.num_load_insts                     9180678                       # Number of load instructions
system.cpu.num_store_insts                    5019313                       # Number of store instructions
system.cpu.num_idle_cycles                          0                       # Number of idle cycles
system.cpu.num_busy_cycles                  244495861                       # Number of busy cycles
system.cpu.not_idle_fraction                        1                       # Percentage of non-idle cycles
system.cpu.idle_fraction                            0                       # Percentage of idle cycles
system.cpu.Branches                          10612419                       # Number of branches fetched
system.cpu.op_class::No_OpClass                     0      0.00%      0.00% # Class of executed instruction
system.cpu.op_class::IntAlu                  32367987     69.48%     69.48% # Class of executed instruction
system.cpu.op_class::IntMult                    19468      0.04%     69.52% # Class of executed instruction
system.cpu.op_class::IntDiv                         0      0.00%     69.52% # Class of executed instruction
system.cpu.op_class::FloatAdd                       0      0.00%     69.52% # Class of executed instruction
system.cpu.op_class::FloatCmp                       0      0.00%     69.52% # Class of executed instruction
system.cpu.op_class::FloatCvt                       0      0.00%     69.52% # Class of executed instruction
system.cpu.op_class::FloatMult                      0      0.00%     69.52% # Class of executed instruction
system.cpu.op_class::FloatMultAcc                   0      0.00%     69.52% # Class of executed instruction
system.cpu.op_class::FloatDiv                       0      0.00%     69.52% # Class of executed instruction
system.cpu.op_class::FloatMisc                      0      0.00%     69.52% # Class of executed instruction
system.cpu.op_class::FloatSqrt                      0      0.00%     69.52% # Class of executed instruction
system.cpu.op_class::SimdAdd                        0      0.00%     69.52% # Class of executed instruction
system.cpu.op_class::SimdAddAcc                     0      0.00%     69.52% # Class of executed instruction
system.cpu.op_class::SimdAlu                        0      0.00%     69.52% # Class of executed instruction
system.cpu.op_class::SimdCmp                        0      0.00%     69.52% # Class of executed instruction
system.cpu.op_class::SimdCvt                        0      0.00%     69.52% # Class of executed instruction
system.cpu.op_class::SimdMisc                       0      0.00%     69.52% # Class of executed instruction
system.cpu.op_class::SimdMult                       0      0.00%     69.52% # Class of executed instruction
system.cpu.op_class::SimdMultAcc                    0      0.00%     69.52% # Class of executed instruction
system.cpu.op_class::SimdShift                      0      0.00%     69.52% # Class of executed instruction
system.cpu.op_class::SimdShiftAcc                   0      0.00%     69.52% # Class of executed instruction
system.cpu.op_class::SimdSqrt                       0      0.00%     69.52% # Class of executed instruction
system.cpu.op_class::SimdFloatAdd                   0      0.00%     69.52% # Class of executed instruction
system.cpu.op_class::SimdFloatAlu                   0      0.00%     69.52% # Class of executed instruction
system.cpu.op_class::SimdFloatCmp                   0      0.00%     69.52% # Class of executed instruction
system.cpu.op_class::SimdFloatCvt                   0      0.00%     69.52% # Class of executed instruction
system.cpu.op_class::SimdFloatDiv                   0      0.00%     69.52% # Class of executed instruction
system.cpu.op_class::SimdFloatMisc                  0      0.00%     69.52% # Class of executed instruction
system.cpu.op_class::SimdFloatMult                  0      0.00%     69.52% # Class of executed instruction
system.cpu.op_class::SimdFloatMultAcc               0      0.00%     69.52% # Class of executed instruction
system.cpu.op_class::SimdFloatSqrt                  0      0.00%     69.52% # Class of executed instruction
system.cpu.op_class::MemRead                  9180678     19.71%     89.23% # Class of executed instruction
system.cpu.op_class::MemWrite                 5019297     10.77%    100.00% # Class of executed instruction
system.cpu.op_class::FloatMemRead                   0      0.00%    100.00% # Class of executed instruction
system.cpu.op_class::FloatMemWrite                 16      0.00%    100.00% # Class of executed instruction
system.cpu.op_class::IprAccess                      0      0.00%    100.00% # Class of executed instruction
system.cpu.op_class::InstPrefetch                   0      0.00%    100.00% # Class of executed instruction
system.cpu.op_class::total                   46587446                       # Class of executed instruction
system.cpu.dcache.tags.pwrStateResidencyTicks::UNDEFINED 122247930500                       # Cumulative time (in ticks) in various power states
system.cpu.dcache.tags.replacements           1317567                       # number of replacements
system.cpu.dcache.tags.tagsinuse           255.937417                       # Cycle average of tags in use
system.cpu.dcache.tags.total_refs            12845093                       # Total number of references to valid blocks.
system.cpu.dcache.tags.sampled_refs           1317823                       # Sample count of references to valid blocks.
system.cpu.dcache.tags.avg_refs              9.747207                       # Average number of references to valid blocks.
system.cpu.dcache.tags.warmup_cycle          98809500                       # Cycle when the warmup percentage was hit.
system.cpu.dcache.tags.occ_blocks::cpu.data   255.937417                       # Average occupied blocks per requestor
system.cpu.dcache.tags.occ_percent::cpu.data     0.999756                       # Average percentage of cache occupancy
system.cpu.dcache.tags.occ_percent::total     0.999756                       # Average percentage of cache occupancy
system.cpu.dcache.tags.occ_task_id_blocks::1024          256                       # Occupied blocks per task id
system.cpu.dcache.tags.age_task_id_blocks_1024::0           24                       # Occupied blocks per task id
system.cpu.dcache.tags.age_task_id_blocks_1024::1          155                       # Occupied blocks per task id
system.cpu.dcache.tags.age_task_id_blocks_1024::2           19                       # Occupied blocks per task id
system.cpu.dcache.tags.age_task_id_blocks_1024::3           58                       # Occupied blocks per task id
system.cpu.dcache.tags.occ_task_id_percent::1024            1                       # Percentage of cache occupancy per task id
system.cpu.dcache.tags.tag_accesses         114621151                       # Number of tag accesses
system.cpu.dcache.tags.data_accesses        114621151                       # Number of data accesses
system.cpu.dcache.pwrStateResidencyTicks::UNDEFINED 122247930500                       # Cumulative time (in ticks) in various power states
system.cpu.dcache.ReadReq_hits::cpu.data      7835465                       # number of ReadReq hits
system.cpu.dcache.ReadReq_hits::total         7835465                       # number of ReadReq hits
system.cpu.dcache.WriteReq_hits::cpu.data      4819168                       # number of WriteReq hits
system.cpu.dcache.WriteReq_hits::total        4819168                       # number of WriteReq hits
system.cpu.dcache.LoadLockedReq_hits::cpu.data        95230                       # number of LoadLockedReq hits
system.cpu.dcache.LoadLockedReq_hits::total        95230                       # number of LoadLockedReq hits
system.cpu.dcache.StoreCondReq_hits::cpu.data        95230                       # number of StoreCondReq hits
system.cpu.dcache.StoreCondReq_hits::total        95230                       # number of StoreCondReq hits
system.cpu.dcache.demand_hits::cpu.data      12654633                       # number of demand (read+write) hits
system.cpu.dcache.demand_hits::total         12654633                       # number of demand (read+write) hits
system.cpu.dcache.overall_hits::cpu.data     12654633                       # number of overall hits
system.cpu.dcache.overall_hits::total        12654633                       # number of overall hits
system.cpu.dcache.ReadReq_misses::cpu.data      1274595                       # number of ReadReq misses
system.cpu.dcache.ReadReq_misses::total       1274595                       # number of ReadReq misses
system.cpu.dcache.WriteReq_misses::cpu.data        43228                       # number of WriteReq misses
system.cpu.dcache.WriteReq_misses::total        43228                       # number of WriteReq misses
system.cpu.dcache.demand_misses::cpu.data      1317823                       # number of demand (read+write) misses
system.cpu.dcache.demand_misses::total        1317823                       # number of demand (read+write) misses
system.cpu.dcache.overall_misses::cpu.data      1317823                       # number of overall misses
system.cpu.dcache.overall_misses::total       1317823                       # number of overall misses
system.cpu.dcache.ReadReq_miss_latency::cpu.data  40062832000                       # number of ReadReq miss cycles
system.cpu.dcache.ReadReq_miss_latency::total  40062832000                       # number of ReadReq miss cycles
system.cpu.dcache.WriteReq_miss_latency::cpu.data   1289488500                       # number of WriteReq miss cycles
system.cpu.dcache.WriteReq_miss_latency::total   1289488500                       # number of WriteReq miss cycles
system.cpu.dcache.demand_miss_latency::cpu.data  41352320500                       # number of demand (read+write) miss cycles
system.cpu.dcache.demand_miss_latency::total  41352320500                       # number of demand (read+write) miss cycles
system.cpu.dcache.overall_miss_latency::cpu.data  41352320500                       # number of overall miss cycles
system.cpu.dcache.overall_miss_latency::total  41352320500                       # number of overall miss cycles
system.cpu.dcache.ReadReq_accesses::cpu.data      9110060                       # number of ReadReq accesses(hits+misses)
system.cpu.dcache.ReadReq_accesses::total      9110060                       # number of ReadReq accesses(hits+misses)
system.cpu.dcache.WriteReq_accesses::cpu.data      4862396                       # number of WriteReq accesses(hits+misses)
system.cpu.dcache.WriteReq_accesses::total      4862396                       # number of WriteReq accesses(hits+misses)
system.cpu.dcache.LoadLockedReq_accesses::cpu.data        95230                       # number of LoadLockedReq accesses(hits+misses)
system.cpu.dcache.LoadLockedReq_accesses::total        95230                       # number of LoadLockedReq accesses(hits+misses)
system.cpu.dcache.StoreCondReq_accesses::cpu.data        95230                       # number of StoreCondReq accesses(hits+misses)
system.cpu.dcache.StoreCondReq_accesses::total        95230                       # number of StoreCondReq accesses(hits+misses)
system.cpu.dcache.demand_accesses::cpu.data     13972456                       # number of demand (read+write) accesses
system.cpu.dcache.demand_accesses::total     13972456                       # number of demand (read+write) accesses
system.cpu.dcache.overall_accesses::cpu.data     13972456                       # number of overall (read+write) accesses
system.cpu.dcache.overall_accesses::total     13972456                       # number of overall (read+write) accesses
system.cpu.dcache.ReadReq_miss_rate::cpu.data     0.139911                       # miss rate for ReadReq accesses
system.cpu.dcache.ReadReq_miss_rate::total     0.139911                       # miss rate for ReadReq accesses
system.cpu.dcache.WriteReq_miss_rate::cpu.data     0.008890                       # miss rate for WriteReq accesses
system.cpu.dcache.WriteReq_miss_rate::total     0.008890                       # miss rate for WriteReq accesses
system.cpu.dcache.demand_miss_rate::cpu.data     0.094316                       # miss rate for demand accesses
system.cpu.dcache.demand_miss_rate::total     0.094316                       # miss rate for demand accesses
system.cpu.dcache.overall_miss_rate::cpu.data     0.094316                       # miss rate for overall accesses
system.cpu.dcache.overall_miss_rate::total     0.094316                       # miss rate for overall accesses
system.cpu.dcache.ReadReq_avg_miss_latency::cpu.data 31431.813243                       # average ReadReq miss latency
system.cpu.dcache.ReadReq_avg_miss_latency::total 31431.813243                       # average ReadReq miss latency
system.cpu.dcache.WriteReq_avg_miss_latency::cpu.data 29829.936615                       # average WriteReq miss latency
system.cpu.dcache.WriteReq_avg_miss_latency::total 29829.936615                       # average WriteReq miss latency
system.cpu.dcache.demand_avg_miss_latency::cpu.data 31379.267550                       # average overall miss latency
system.cpu.dcache.demand_avg_miss_latency::total 31379.267550                       # average overall miss latency
system.cpu.dcache.overall_avg_miss_latency::cpu.data 31379.267550                       # average overall miss latency
system.cpu.dcache.overall_avg_miss_latency::total 31379.267550                       # average overall miss latency
system.cpu.dcache.blocked_cycles::no_mshrs            0                       # number of cycles access was blocked
system.cpu.dcache.blocked_cycles::no_targets            0                       # number of cycles access was blocked
system.cpu.dcache.blocked::no_mshrs                 0                       # number of cycles access was blocked
system.cpu.dcache.blocked::no_targets               0                       # number of cycles access was blocked
system.cpu.dcache.avg_blocked_cycles::no_mshrs          nan                       # average number of cycles each access was blocked
system.cpu.dcache.avg_blocked_cycles::no_targets          nan                       # average number of cycles each access was blocked
system.cpu.dcache.writebacks::writebacks       794918                       # number of writebacks
system.cpu.dcache.writebacks::total            794918                       # number of writebacks
system.cpu.dcache.ReadReq_mshr_misses::cpu.data      1274595                       # number of ReadReq MSHR misses
system.cpu.dcache.ReadReq_mshr_misses::total      1274595                       # number of ReadReq MSHR misses
system.cpu.dcache.WriteReq_mshr_misses::cpu.data        43228                       # number of WriteReq MSHR misses
system.cpu.dcache.WriteReq_mshr_misses::total        43228                       # number of WriteReq MSHR misses
system.cpu.dcache.demand_mshr_misses::cpu.data      1317823                       # number of demand (read+write) MSHR misses
system.cpu.dcache.demand_mshr_misses::total      1317823                       # number of demand (read+write) MSHR misses
system.cpu.dcache.overall_mshr_misses::cpu.data      1317823                       # number of overall MSHR misses
system.cpu.dcache.overall_mshr_misses::total      1317823                       # number of overall MSHR misses
system.cpu.dcache.ReadReq_mshr_miss_latency::cpu.data  38788237000                       # number of ReadReq MSHR miss cycles
system.cpu.dcache.ReadReq_mshr_miss_latency::total  38788237000                       # number of ReadReq MSHR miss cycles
system.cpu.dcache.WriteReq_mshr_miss_latency::cpu.data   1246260500                       # number of WriteReq MSHR miss cycles
system.cpu.dcache.WriteReq_mshr_miss_latency::total   1246260500                       # number of WriteReq MSHR miss cycles
system.cpu.dcache.demand_mshr_miss_latency::cpu.data  40034497500                       # number of demand (read+write) MSHR miss cycles
system.cpu.dcache.demand_mshr_miss_latency::total  40034497500                       # number of demand (read+write) MSHR miss cycles
system.cpu.dcache.overall_mshr_miss_latency::cpu.data  40034497500                       # number of overall MSHR miss cycles
system.cpu.dcache.overall_mshr_miss_latency::total  40034497500                       # number of overall MSHR miss cycles
system.cpu.dcache.ReadReq_mshr_miss_rate::cpu.data     0.139911                       # mshr miss rate for ReadReq accesses
system.cpu.dcache.ReadReq_mshr_miss_rate::total     0.139911                       # mshr miss rate for ReadReq accesses
system.cpu.dcache.WriteReq_mshr_miss_rate::cpu.data     0.008890                       # mshr miss rate for WriteReq accesses
system.cpu.dcache.WriteReq_mshr_miss_rate::total     0.008890                       # mshr miss rate for WriteReq accesses
system.cpu.dcache.demand_mshr_miss_rate::cpu.data     0.094316                       # mshr miss rate for demand accesses
system.cpu.dcache.demand_mshr_miss_rate::total     0.094316                       # mshr miss rate for demand accesses
system.cpu.dcache.overall_mshr_miss_rate::cpu.data     0.094316                       # mshr miss rate for overall accesses
system.cpu.dcache.overall_mshr_miss_rate::total     0.094316                       # mshr miss rate for overall accesses
system.cpu.dcache.ReadReq_avg_mshr_miss_latency::cpu.data 30431.813243                       # average ReadReq mshr miss latency
system.cpu.dcache.ReadReq_avg_mshr_miss_latency::total 30431.813243                       # average ReadReq mshr miss latency
system.cpu.dcache.WriteReq_avg_mshr_miss_latency::cpu.data 28829.936615                       # average WriteReq mshr miss latency
system.cpu.dcache.WriteReq_avg_mshr_miss_latency::total 28829.936615                       # average WriteReq mshr miss latency
system.cpu.dcache.demand_avg_mshr_miss_latency::cpu.data 30379.267550                       # average overall mshr miss latency
system.cpu.dcache.demand_avg_mshr_miss_latency::total 30379.267550                       # average overall mshr miss latency
system.cpu.dcache.overall_avg_mshr_miss_latency::cpu.data 30379.267550                       # average overall mshr miss latency
system.cpu.dcache.overall_avg_mshr_miss_latency::total 30379.267550                       # average overall mshr miss latency
system.cpu.icache.tags.pwrStateResidencyTicks::UNDEFINED 122247930500                       # Cumulative time (in ticks) in various power states
system.cpu.icache.tags.replacements           1978142                       # number of replacements
system.cpu.icache.tags.tagsinuse           127.977664                       # Cycle average of tags in use
system.cpu.icache.tags.total_refs            41835747                       # Total number of references to valid blocks.
system.cpu.icache.tags.sampled_refs           1978270                       # Sample count of references to valid blocks.
system.cpu.icache.tags.avg_refs             21.147643                       # Average number of references to valid blocks.
system.cpu.icache.tags.warmup_cycle          94888500                       # Cycle when the warmup percentage was hit.
system.cpu.icache.tags.occ_blocks::cpu.inst   127.977664                       # Average occupied blocks per requestor
system.cpu.icache.tags.occ_percent::cpu.inst     0.999825                       # Average percentage of cache occupancy
system.cpu.icache.tags.occ_percent::total     0.999825                       # Average percentage of cache occupancy
system.cpu.icache.tags.occ_task_id_blocks::1024          128                       # Occupied blocks per task id
system.cpu.icache.tags.age_task_id_blocks_1024::0           57                       # Occupied blocks per task id
system.cpu.icache.tags.age_task_id_blocks_1024::1           59                       # Occupied blocks per task id
system.cpu.icache.tags.age_task_id_blocks_1024::3            1                       # Occupied blocks per task id
system.cpu.icache.tags.age_task_id_blocks_1024::4           11                       # Occupied blocks per task id
system.cpu.icache.tags.occ_task_id_percent::1024            1                       # Percentage of cache occupancy per task id
system.cpu.icache.tags.tag_accesses          45792287                       # Number of tag accesses
system.cpu.icache.tags.data_accesses         45792287                       # Number of data accesses
system.cpu.icache.pwrStateResidencyTicks::UNDEFINED 122247930500                       # Cumulative time (in ticks) in various power states
system.cpu.icache.ReadReq_hits::cpu.inst     41835747                       # number of ReadReq hits
system.cpu.icache.ReadReq_hits::total        41835747                       # number of ReadReq hits
system.cpu.icache.demand_hits::cpu.inst      41835747                       # number of demand (read+write) hits
system.cpu.icache.demand_hits::total         41835747                       # number of demand (read+write) hits
system.cpu.icache.overall_hits::cpu.inst     41835747                       # number of overall hits
system.cpu.icache.overall_hits::total        41835747                       # number of overall hits
system.cpu.icache.ReadReq_misses::cpu.inst      1978270                       # number of ReadReq misses
system.cpu.icache.ReadReq_misses::total       1978270                       # number of ReadReq misses
system.cpu.icache.demand_misses::cpu.inst      1978270                       # number of demand (read+write) misses
system.cpu.icache.demand_misses::total        1978270                       # number of demand (read+write) misses
system.cpu.icache.overall_misses::cpu.inst      1978270                       # number of overall misses
system.cpu.icache.overall_misses::total       1978270                       # number of overall misses
system.cpu.icache.ReadReq_miss_latency::cpu.inst  26277046500                       # number of ReadReq miss cycles
system.cpu.icache.ReadReq_miss_latency::total  26277046500                       # number of ReadReq miss cycles
system.cpu.icache.demand_miss_latency::cpu.inst  26277046500                       # number of demand (read+write) miss cycles
system.cpu.icache.demand_miss_latency::total  26277046500                       # number of demand (read+write) miss cycles
system.cpu.icache.overall_miss_latency::cpu.inst  26277046500                       # number of overall miss cycles
system.cpu.icache.overall_miss_latency::total  26277046500                       # number of overall miss cycles
system.cpu.icache.ReadReq_accesses::cpu.inst     43814017                       # number of ReadReq accesses(hits+misses)
system.cpu.icache.ReadReq_accesses::total     43814017                       # number of ReadReq accesses(hits+misses)
system.cpu.icache.demand_accesses::cpu.inst     43814017                       # number of demand (read+write) accesses
system.cpu.icache.demand_accesses::total     43814017                       # number of demand (read+write) accesses
system.cpu.icache.overall_accesses::cpu.inst     43814017                       # number of overall (read+write) accesses
system.cpu.icache.overall_accesses::total     43814017                       # number of overall (read+write) accesses
system.cpu.icache.ReadReq_miss_rate::cpu.inst     0.045152                       # miss rate for ReadReq accesses
system.cpu.icache.ReadReq_miss_rate::total     0.045152                       # miss rate for ReadReq accesses
system.cpu.icache.demand_miss_rate::cpu.inst     0.045152                       # miss rate for demand accesses
system.cpu.icache.demand_miss_rate::total     0.045152                       # miss rate for demand accesses
system.cpu.icache.overall_miss_rate::cpu.inst     0.045152                       # miss rate for overall accesses
system.cpu.icache.overall_miss_rate::total     0.045152                       # miss rate for overall accesses
system.cpu.icache.ReadReq_avg_miss_latency::cpu.inst 13282.841321                       # average ReadReq miss latency
system.cpu.icache.ReadReq_avg_miss_latency::total 13282.841321                       # average ReadReq miss latency
system.cpu.icache.demand_avg_miss_latency::cpu.inst 13282.841321                       # average overall miss latency
system.cpu.icache.demand_avg_miss_latency::total 13282.841321                       # average overall miss latency
system.cpu.icache.overall_avg_miss_latency::cpu.inst 13282.841321                       # average overall miss latency
system.cpu.icache.overall_avg_miss_latency::total 13282.841321                       # average overall miss latency
system.cpu.icache.blocked_cycles::no_mshrs            0                       # number of cycles access was blocked
system.cpu.icache.blocked_cycles::no_targets            0                       # number of cycles access was blocked
system.cpu.icache.blocked::no_mshrs                 0                       # number of cycles access was blocked
system.cpu.icache.blocked::no_targets               0                       # number of cycles access was blocked
system.cpu.icache.avg_blocked_cycles::no_mshrs          nan                       # average number of cycles each access was blocked
system.cpu.icache.avg_blocked_cycles::no_targets          nan                       # average number of cycles each access was blocked
system.cpu.icache.writebacks::writebacks      1978142                       # number of writebacks
system.cpu.icache.writebacks::total           1978142                       # number of writebacks
system.cpu.icache.ReadReq_mshr_misses::cpu.inst      1978270                       # number of ReadReq MSHR misses
system.cpu.icache.ReadReq_mshr_misses::total      1978270                       # number of ReadReq MSHR misses
[...]
system.l2.ReadExReq_accesses::total             43228                       # number of ReadExReq accesses(hits+misses)
system.l2.ReadCleanReq_accesses::cpu.inst      1978270                       # number of ReadCleanReq accesses(hits+misses)
system.l2.ReadCleanReq_accesses::total        1978270                       # number of ReadCleanReq accesses(hits+misses)
system.l2.ReadSharedReq_accesses::cpu.data      1274595                       # number of ReadSharedReq accesses(hits+misses)
system.l2.ReadSharedReq_accesses::total       1274595                       # number of ReadSharedReq accesses(hits+misses)
system.l2.demand_accesses::cpu.inst           1978270                       # number of demand (read+write) accesses
system.l2.demand_accesses::cpu.data           1317823                       # number of demand (read+write) accesses
system.l2.demand_accesses::total              3296093                       # number of demand (read+write) accesses
system.l2.overall_accesses::cpu.inst          1978270                       # number of overall (read+write) accesses
system.l2.overall_accesses::cpu.data          1317823                       # number of overall (read+write) accesses
system.l2.overall_accesses::total             3296093                       # number of overall (read+write) accesses
system.l2.ReadExReq_miss_rate::cpu.data      0.137966                       # miss rate for ReadExReq accesses
system.l2.ReadExReq_miss_rate::total         0.137966                       # miss rate for ReadExReq accesses
system.l2.ReadCleanReq_miss_rate::cpu.inst     0.003828                       # miss rate for ReadCleanReq accesses
system.l2.ReadCleanReq_miss_rate::total      0.003828                       # miss rate for ReadCleanReq accesses
system.l2.ReadSharedReq_miss_rate::cpu.data     0.247219                       # miss rate for ReadSharedReq accesses
system.l2.ReadSharedReq_miss_rate::total     0.247219                       # miss rate for ReadSharedReq accesses
system.l2.demand_miss_rate::cpu.inst         0.003828                       # miss rate for demand accesses
system.l2.demand_miss_rate::cpu.data         0.243635                       # miss rate for demand accesses
system.l2.demand_miss_rate::total            0.099706                       # miss rate for demand accesses
system.l2.overall_miss_rate::cpu.inst        0.003828                       # miss rate for overall accesses
system.l2.overall_miss_rate::cpu.data        0.243635                       # miss rate for overall accesses
system.l2.overall_miss_rate::total           0.099706                       # miss rate for overall accesses
system.l2.ReadExReq_avg_miss_latency::cpu.data 132485.999329                       # average ReadExReq miss latency
system.l2.ReadExReq_avg_miss_latency::total 132485.999329                       # average ReadExReq miss latency
system.l2.ReadCleanReq_avg_miss_latency::cpu.inst 83016.310090                       # average ReadCleanReq miss latency
system.l2.ReadCleanReq_avg_miss_latency::total 83016.310090                       # average ReadCleanReq miss latency
system.l2.ReadSharedReq_avg_miss_latency::cpu.data 85056.497220                       # average ReadSharedReq miss latency
system.l2.ReadSharedReq_avg_miss_latency::total 85056.497220                       # average ReadSharedReq miss latency
system.l2.demand_avg_miss_latency::cpu.inst 83016.310090                       # average overall miss latency
system.l2.demand_avg_miss_latency::cpu.data 85937.524138                       # average overall miss latency
system.l2.demand_avg_miss_latency::total 85870.218172                       # average overall miss latency
system.l2.overall_avg_miss_latency::cpu.inst 83016.310090                       # average overall miss latency
system.l2.overall_avg_miss_latency::cpu.data 85937.524138                       # average overall miss latency
system.l2.overall_avg_miss_latency::total 85870.218172                       # average overall miss latency
system.l2.blocked_cycles::no_mshrs                  0                       # number of cycles access was blocked
system.l2.blocked_cycles::no_targets                0                       # number of cycles access was blocked
system.l2.blocked::no_mshrs                         0                       # number of cycles access was blocked
system.l2.blocked::no_targets                       0                       # number of cycles access was blocked
system.l2.avg_blocked_cycles::no_mshrs            nan                       # average number of cycles each access was blocked
system.l2.avg_blocked_cycles::no_targets          nan                       # average number of cycles each access was blocked
system.l2.writebacks::writebacks                21642                       # number of writebacks
system.l2.writebacks::total                     21642                       # number of writebacks
system.l2.CleanEvict_mshr_misses::writebacks         1305                       # number of CleanEvict MSHR misses
system.l2.CleanEvict_mshr_misses::total          1305                       # number of CleanEvict MSHR misses
system.l2.ReadExReq_mshr_misses::cpu.data         5964                       # number of ReadExReq MSHR misses
system.l2.ReadExReq_mshr_misses::total           5964                       # number of ReadExReq MSHR misses
system.l2.ReadCleanReq_mshr_misses::cpu.inst         7572                       # number of ReadCleanReq MSHR misses
system.l2.ReadCleanReq_mshr_misses::total         7572                       # number of ReadCleanReq MSHR misses
system.l2.ReadSharedReq_mshr_misses::cpu.data       315104                       # number of ReadSharedReq MSHR misses
system.l2.ReadSharedReq_mshr_misses::total       315104                       # number of ReadSharedReq MSHR misses
system.l2.demand_mshr_misses::cpu.inst           7572                       # number of demand (read+write) MSHR misses
system.l2.demand_mshr_misses::cpu.data         321068                       # number of demand (read+write) MSHR misses
system.l2.demand_mshr_misses::total            328640                       # number of demand (read+write) MSHR misses
system.l2.overall_mshr_misses::cpu.inst          7572                       # number of overall MSHR misses
system.l2.overall_mshr_misses::cpu.data        321068                       # number of overall MSHR misses
system.l2.overall_mshr_misses::total           328640                       # number of overall MSHR misses
system.l2.ReadExReq_mshr_miss_latency::cpu.data    730506500                       # number of ReadExReq MSHR miss cycles
system.l2.ReadExReq_mshr_miss_latency::total    730506500                       # number of ReadExReq MSHR miss cycles
system.l2.ReadCleanReq_mshr_miss_latency::cpu.inst    552879500                       # number of ReadCleanReq MSHR miss cycles
system.l2.ReadCleanReq_mshr_miss_latency::total    552879500                       # number of ReadCleanReq MSHR miss cycles
system.l2.ReadSharedReq_mshr_miss_latency::cpu.data  23650602500                       # number of ReadSharedReq MSHR miss cycles
system.l2.ReadSharedReq_mshr_miss_latency::total  23650602500                       # number of ReadSharedReq MSHR miss cycles
system.l2.demand_mshr_miss_latency::cpu.inst    552879500                       # number of demand (read+write) MSHR miss cycles
system.l2.demand_mshr_miss_latency::cpu.data  24381109000                       # number of demand (read+write) MSHR miss cycles
system.l2.demand_mshr_miss_latency::total  24933988500                       # number of demand (read+write) MSHR miss cycles
system.l2.overall_mshr_miss_latency::cpu.inst    552879500                       # number of overall MSHR miss cycles
system.l2.overall_mshr_miss_latency::cpu.data  24381109000                       # number of overall MSHR miss cycles
system.l2.overall_mshr_miss_latency::total  24933988500                       # number of overall MSHR miss cycles
system.l2.CleanEvict_mshr_miss_rate::writebacks          inf                       # mshr miss rate for CleanEvict accesses
system.l2.CleanEvict_mshr_miss_rate::total          inf                       # mshr miss rate for CleanEvict accesses
system.l2.ReadExReq_mshr_miss_rate::cpu.data     0.137966                       # mshr miss rate for ReadExReq accesses
system.l2.ReadExReq_mshr_miss_rate::total     0.137966                       # mshr miss rate for ReadExReq accesses
system.l2.ReadCleanReq_mshr_miss_rate::cpu.inst     0.003828                       # mshr miss rate for ReadCleanReq accesses
system.l2.ReadCleanReq_mshr_miss_rate::total     0.003828                       # mshr miss rate for ReadCleanReq accesses
system.l2.ReadSharedReq_mshr_miss_rate::cpu.data     0.247219                       # mshr miss rate for ReadSharedReq accesses
system.l2.ReadSharedReq_mshr_miss_rate::total     0.247219                       # mshr miss rate for ReadSharedReq accesses
system.l2.demand_mshr_miss_rate::cpu.inst     0.003828                       # mshr miss rate for demand accesses
system.l2.demand_mshr_miss_rate::cpu.data     0.243635                       # mshr miss rate for demand accesses
system.l2.demand_mshr_miss_rate::total       0.099706                       # mshr miss rate for demand accesses
system.l2.overall_mshr_miss_rate::cpu.inst     0.003828                       # mshr miss rate for overall accesses
system.l2.overall_mshr_miss_rate::cpu.data     0.243635                       # mshr miss rate for overall accesses
system.l2.overall_mshr_miss_rate::total      0.099706                       # mshr miss rate for overall accesses
system.l2.ReadExReq_avg_mshr_miss_latency::cpu.data 122485.999329                       # average ReadExReq mshr miss latency
system.l2.ReadExReq_avg_mshr_miss_latency::total 122485.999329                       # average ReadExReq mshr miss latency
system.l2.ReadCleanReq_avg_mshr_miss_latency::cpu.inst 73016.310090                       # average ReadCleanReq mshr miss latency
system.l2.ReadCleanReq_avg_mshr_miss_latency::total 73016.310090                       # average ReadCleanReq mshr miss latency
system.l2.ReadSharedReq_avg_mshr_miss_latency::cpu.data 75056.497220                       # average ReadSharedReq mshr miss latency
system.l2.ReadSharedReq_avg_mshr_miss_latency::total 75056.497220                       # average ReadSharedReq mshr miss latency
system.l2.demand_avg_mshr_miss_latency::cpu.inst 73016.310090                       # average overall mshr miss latency
system.l2.demand_avg_mshr_miss_latency::cpu.data 75937.524138                       # average overall mshr miss latency
system.l2.demand_avg_mshr_miss_latency::total 75870.218172                       # average overall mshr miss latency
system.l2.overall_avg_mshr_miss_latency::cpu.inst 73016.310090                       # average overall mshr miss latency
system.l2.overall_avg_mshr_miss_latency::cpu.data 75937.524138                       # average overall mshr miss latency
system.l2.overall_avg_mshr_miss_latency::total 75870.218172                       # average overall mshr miss latency
system.membus.snoop_filter.tot_requests        656160                       # Total number of requests made to the snoop filter.
system.membus.snoop_filter.hit_single_requests       327520                       # Number of requests hitting in the snoop filter with a single holder of the requested data.
system.membus.snoop_filter.hit_multi_requests            0                       # Number of requests hitting in the snoop filter with multiple (>1) holders of the requested data.
system.membus.snoop_filter.tot_snoops               0                       # Total number of snoops made to the snoop filter.
system.membus.snoop_filter.hit_single_snoops            0                       # Number of snoops hitting in the snoop filter with a single holder of the requested data.
system.membus.snoop_filter.hit_multi_snoops            0                       # Number of snoops hitting in the snoop filter with multiple (>1) holders of the requested data.
system.membus.pwrStateResidencyTicks::UNDEFINED 122247930500                       # Cumulative time (in ticks) in various power states
system.membus.trans_dist::ReadResp             322676                       # Transaction distribution
system.membus.trans_dist::WritebackDirty        21642                       # Transaction distribution
system.membus.trans_dist::CleanEvict           305878                       # Transaction distribution
system.membus.trans_dist::ReadExReq              5964                       # Transaction distribution
system.membus.trans_dist::ReadExResp             5964                       # Transaction distribution
system.membus.trans_dist::ReadSharedReq        322676                       # Transaction distribution
system.membus.pkt_count_system.l2.mem_side::system.mem_ctrls.port       984800                       # Packet count per connected master and slave (bytes)
system.membus.pkt_count::total                 984800                       # Packet count per connected master and slave (bytes)
system.membus.pkt_size_system.l2.mem_side::system.mem_ctrls.port      5604512                       # Cumulative packet size per connected master and slave (bytes)
system.membus.pkt_size::total                 5604512                       # Cumulative packet size per connected master and slave (bytes)
system.membus.snoops                                0                       # Total snoops (count)
system.membus.snoopTraffic                          0                       # Total snoop traffic (bytes)
system.membus.snoop_fanout::samples            328640                       # Request fanout histogram
system.membus.snoop_fanout::mean                    0                       # Request fanout histogram
system.membus.snoop_fanout::stdev                   0                       # Request fanout histogram
system.membus.snoop_fanout::underflows              0      0.00%      0.00% # Request fanout histogram
system.membus.snoop_fanout::0                  328640    100.00%    100.00% # Request fanout histogram
system.membus.snoop_fanout::1                       0      0.00%    100.00% # Request fanout histogram
system.membus.snoop_fanout::overflows               0      0.00%    100.00% # Request fanout histogram
system.membus.snoop_fanout::min_value               0                       # Request fanout histogram
system.membus.snoop_fanout::max_value               0                       # Request fanout histogram
system.membus.snoop_fanout::total              328640                       # Request fanout histogram
system.membus.reqLayer0.occupancy           678877000                       # Layer occupancy (ticks)
system.membus.reqLayer0.utilization               0.6                       # Layer utilization (%)
system.membus.respLayer1.occupancy          748713250                       # Layer occupancy (ticks)
system.membus.respLayer1.utilization              0.6                       # Layer utilization (%)
system.tol2bus.snoop_filter.tot_requests      6591802                       # Total number of requests made to the snoop filter.
system.tol2bus.snoop_filter.hit_single_requests      3295710                       # Number of requests hitting in the snoop filter with a single holder of the requested data.
system.tol2bus.snoop_filter.hit_multi_requests        10444                       # Number of requests hitting in the snoop filter with multiple (>1) holders of the requested data.
system.tol2bus.snoop_filter.tot_snoops          10178                       # Total number of snoops made to the snoop filter.
system.tol2bus.snoop_filter.hit_single_snoops        10178                       # Number of snoops hitting in the snoop filter with a single holder of the requested data.
system.tol2bus.snoop_filter.hit_multi_snoops            0                       # Number of snoops hitting in the snoop filter with multiple (>1) holders of the requested data.
system.tol2bus.pwrStateResidencyTicks::UNDEFINED 122247930500                       # Cumulative time (in ticks) in various power states
system.tol2bus.trans_dist::ReadResp           3252865                       # Transaction distribution
system.tol2bus.trans_dist::WritebackDirty       816560                       # Transaction distribution
system.tol2bus.trans_dist::WritebackClean      1978142                       # Transaction distribution
system.tol2bus.trans_dist::CleanEvict          837400                       # Transaction distribution
system.tol2bus.trans_dist::ReadExReq            43228                       # Transaction distribution
system.tol2bus.trans_dist::ReadExResp           43228                       # Transaction distribution
system.tol2bus.trans_dist::ReadCleanReq       1978270                       # Transaction distribution
system.tol2bus.trans_dist::ReadSharedReq      1274595                       # Transaction distribution
system.tol2bus.pkt_count_system.cpu.icache.mem_side::system.l2.cpu_side      5934682                       # Packet count per connected master and slave (bytes)
system.tol2bus.pkt_count_system.cpu.dcache.mem_side::system.l2.cpu_side      3953213                       # Packet count per connected master and slave (bytes)
system.tol2bus.pkt_count::total               9887895                       # Packet count per connected master and slave (bytes)
system.tol2bus.pkt_size_system.cpu.icache.mem_side::system.l2.cpu_side     63302592                       # Cumulative packet size per connected master and slave (bytes)
system.tol2bus.pkt_size_system.cpu.dcache.mem_side::system.l2.cpu_side     33803856                       # Cumulative packet size per connected master and slave (bytes)
system.tol2bus.pkt_size::total               97106448                       # Cumulative packet size per connected master and slave (bytes)
system.tol2bus.snoops                          336393                       # Total snoops (count)
system.tol2bus.snoopTraffic                    346272                       # Total snoop traffic (bytes)
system.tol2bus.snoop_fanout::samples          3632486                       # Request fanout histogram
system.tol2bus.snoop_fanout::mean            0.005677                       # Request fanout histogram
system.tol2bus.snoop_fanout::stdev           0.075134                       # Request fanout histogram
system.tol2bus.snoop_fanout::underflows             0      0.00%      0.00% # Request fanout histogram
system.tol2bus.snoop_fanout::0                3611863     99.43%     99.43% # Request fanout histogram
system.tol2bus.snoop_fanout::1                  20623      0.57%    100.00% # Request fanout histogram
system.tol2bus.snoop_fanout::2                      0      0.00%    100.00% # Request fanout histogram
system.tol2bus.snoop_fanout::overflows              0      0.00%    100.00% # Request fanout histogram
system.tol2bus.snoop_fanout::min_value              0                       # Request fanout histogram
system.tol2bus.snoop_fanout::max_value              1                       # Request fanout histogram
system.tol2bus.snoop_fanout::total            3632486                       # Request fanout histogram
system.tol2bus.reqLayer0.occupancy         4682431000                       # Layer occupancy (ticks)
system.tol2bus.reqLayer0.utilization              3.8                       # Layer utilization (%)
system.tol2bus.respLayer0.occupancy        1978270000                       # Layer occupancy (ticks)
system.tol2bus.respLayer0.utilization             1.6                       # Layer utilization (%)
system.tol2bus.respLayer1.occupancy        1317823000                       # Layer occupancy (ticks)
system.tol2bus.respLayer1.utilization             1.1                       # Layer utilization (%)

---------- End Simulation Statistics   ----------
