
---------- Begin Simulation Statistics ----------
sim_seconds                                  0.221258                       # Number of seconds simulated
sim_ticks                                221258153000                       # Number of ticks simulated
final_tick                               221258153000                       # Number of ticks from beginning of simulation (restored from checkpoints and never reset)
sim_freq                                 1000000000000                       # Frequency of simulated ticks
host_inst_rate                                 825285                       # Simulator instruction rate (inst/s)
host_op_rate                                   877365                       # Simulator op (including micro ops) rate (op/s)
host_tick_rate                             4180260408                       # Simulator tick rate (ticks/s)
host_mem_usage                                 654296                       # Number of bytes of host memory used
host_seconds                                    52.93                       # Real time elapsed on the host
sim_insts                                    43681717                       # Number of instructions simulated
sim_ops                                      46438300                       # Number of ops (including micro ops) simulated
system.voltage_domain.voltage                       1                       # Voltage in Volts
system.clk_domain.clock                          1000                       # Clock period in ticks
system.mem_ctrls.pwrStateResidencyTicks::UNDEFINED 221258153000                       # Cumulative time (in ticks) in various power states
system.mem_ctrls.bytes_read::cpu.inst           68320                       # Number of bytes read from this memory
system.mem_ctrls.bytes_read::cpu.data        94260608                       # Number of bytes read from this memory
system.mem_ctrls.bytes_read::total           94328928                       # Number of bytes read from this memory
system.mem_ctrls.bytes_inst_read::cpu.inst        68320                       # Number of instructions bytes read from this memory
system.mem_ctrls.bytes_inst_read::total         68320                       # Number of instructions bytes read from this memory
system.mem_ctrls.bytes_written::writebacks     10205216                       # Number of bytes written to this memory
system.mem_ctrls.bytes_written::total        10205216                       # Number of bytes written to this memory
system.mem_ctrls.num_reads::cpu.inst             2135                       # Number of read requests responded to by this memory
system.mem_ctrls.num_reads::cpu.data          2945644                       # Number of read requests responded to by this memory
system.mem_ctrls.num_reads::total             2947779                       # Number of read requests responded to by this memory
system.mem_ctrls.num_writes::writebacks        318913                       # Number of write requests responded to by this memory
system.mem_ctrls.num_writes::total             318913                       # Number of write requests responded to by this memory
system.mem_ctrls.bw_read::cpu.inst             308780                       # Total read bandwidth from this memory (bytes/s)
system.mem_ctrls.bw_read::cpu.data          426020948                       # Total read bandwidth from this memory (bytes/s)
system.mem_ctrls.bw_read::total             426329727                       # Total read bandwidth from this memory (bytes/s)
system.mem_ctrls.bw_inst_read::cpu.inst        308780                       # Instruction read bandwidth from this memory (bytes/s)
system.mem_ctrls.bw_inst_read::total           308780                       # Instruction read bandwidth from this memory (bytes/s)
system.mem_ctrls.bw_write::writebacks        46123570                       # Write bandwidth from this memory (bytes/s)
system.mem_ctrls.bw_write::total             46123570                       # Write bandwidth from this memory (bytes/s)
system.mem_ctrls.bw_total::writebacks        46123570                       # Total bandwidth to/from this memory (bytes/s)
system.mem_ctrls.bw_total::cpu.inst            308780                       # Total bandwidth to/from this memory (bytes/s)
system.mem_ctrls.bw_total::cpu.data         426020948                       # Total bandwidth to/from this memory (bytes/s)
system.mem_ctrls.bw_total::total            472453298                       # Total bandwidth to/from this memory (bytes/s)
system.mem_ctrls.readReqs                     2947779                       # Number of read requests accepted
system.mem_ctrls.writeReqs                     320341                       # Number of write requests accepted
system.mem_ctrls.readBursts                   2947779                       # Number of DRAM read bursts, including those serviced by the write queue
system.mem_ctrls.writeBursts                   320341                       # Number of DRAM write bursts, including those merged in the write queue
system.mem_ctrls.bytesReadDRAM              160499776                       # Total number of bytes read from DRAM
system.mem_ctrls.bytesReadWrQ                28158080                       # Total number of bytes read from write queue
system.mem_ctrls.bytesWritten                 2324352                       # Total number of bytes written to DRAM
system.mem_ctrls.bytesReadSys                94328928                       # Total read bytes from the system interface side
system.mem_ctrls.bytesWrittenSys             10250912                       # Total written bytes from the system interface side
system.mem_ctrls.servicedByWrQ                 439970                       # Number of DRAM read bursts serviced by the write queue
system.mem_ctrls.mergedWrBursts                283995                       # Number of DRAM write bursts merged with an existing one
system.mem_ctrls.neitherReadNorWriteReqs            0                       # Number of requests that are neither read nor write
system.mem_ctrls.perBankRdBursts::0             72911                       # Per bank write bursts
system.mem_ctrls.perBankRdBursts::1             57035                       # Per bank write bursts
system.mem_ctrls.perBankRdBursts::2             83497                       # Per bank write bursts
system.mem_ctrls.perBankRdBursts::3             34565                       # Per bank write bursts
system.mem_ctrls.perBankRdBursts::4             31712                       # Per bank write bursts
system.mem_ctrls.perBankRdBursts::5             28989                       # Per bank write bursts
system.mem_ctrls.perBankRdBursts::6            364906                       # Per bank write bursts
system.mem_ctrls.perBankRdBursts::7           1159688                       # Per bank write bursts
system.mem_ctrls.perBankRdBursts::8             25704                       # Per bank write bursts
system.mem_ctrls.perBankRdBursts::9             51703                       # Per bank write bursts
system.mem_ctrls.perBankRdBursts::10            29969                       # Per bank write bursts
system.mem_ctrls.perBankRdBursts::11            10630                       # Per bank write bursts
system.mem_ctrls.perBankRdBursts::12            87366                       # Per bank write bursts
system.mem_ctrls.perBankRdBursts::13           381539                       # Per bank write bursts
system.mem_ctrls.perBankRdBursts::14            43558                       # Per bank write bursts
system.mem_ctrls.perBankRdBursts::15            44037                       # Per bank write bursts
system.mem_ctrls.perBankWrBursts::0               151                       # Per bank write bursts
system.mem_ctrls.perBankWrBursts::1               128                       # Per bank write bursts
system.mem_ctrls.perBankWrBursts::2              5768                       # Per bank write bursts
system.mem_ctrls.perBankWrBursts::3                53                       # Per bank write bursts
system.mem_ctrls.perBankWrBursts::4                54                       # Per bank write bursts
system.mem_ctrls.perBankWrBursts::5               391                       # Per bank write bursts
system.mem_ctrls.perBankWrBursts::6              4867                       # Per bank write bursts
system.mem_ctrls.perBankWrBursts::7             14522                       # Per bank write bursts
system.mem_ctrls.perBankWrBursts::8                 0                       # Per bank write bursts
system.mem_ctrls.perBankWrBursts::9                90                       # Per bank write bursts
system.mem_ctrls.perBankWrBursts::10                5                       # Per bank write bursts
system.mem_ctrls.perBankWrBursts::11               88                       # Per bank write bursts
system.mem_ctrls.perBankWrBursts::12             2411                       # Per bank write bursts
system.mem_ctrls.perBankWrBursts::13             7525                       # Per bank write bursts
system.mem_ctrls.perBankWrBursts::14              137                       # Per bank write bursts
system.mem_ctrls.perBankWrBursts::15              128                       # Per bank write bursts
system.mem_ctrls.numRdRetry                         0                       # Number of times read queue was full causing retry
system.mem_ctrls.numWrRetry                         0                       # Number of times write queue was full causing retry
system.mem_ctrls.totGap                  221258152000                       # Total gap between requests
system.mem_ctrls.readPktSize::0                     0                       # Read request sizes (log2)
system.mem_ctrls.readPktSize::1                     0                       # Read request sizes (log2)
system.mem_ctrls.readPktSize::2                     0                       # Read request sizes (log2)
system.mem_ctrls.readPktSize::3                     0                       # Read request sizes (log2)
system.mem_ctrls.readPktSize::4                     0                       # Read request sizes (log2)
system.mem_ctrls.readPktSize::5               2947779                       # Read request sizes (log2)
system.mem_ctrls.readPktSize::6                     0                       # Read request sizes (log2)
system.mem_ctrls.writePktSize::0                    0                       # Write request sizes (log2)
system.mem_ctrls.writePktSize::1                    0                       # Write request sizes (log2)
system.mem_ctrls.writePktSize::2                    0                       # Write request sizes (log2)
system.mem_ctrls.writePktSize::3                    0                       # Write request sizes (log2)
system.mem_ctrls.writePktSize::4                    0                       # Write request sizes (log2)
system.mem_ctrls.writePktSize::5               320341                       # Write request sizes (log2)
system.mem_ctrls.writePktSize::6                    0                       # Write request sizes (log2)
system.mem_ctrls.rdQLenPdf::0                 2507799                       # What read queue length does an incoming req see
system.mem_ctrls.rdQLenPdf::1                      10                       # What read queue length does an incoming req see
system.mem_ctrls.rdQLenPdf::2                       0                       # What read queue length does an incoming req see
system.mem_ctrls.rdQLenPdf::3                       0                       # What read queue length does an incoming req see
system.mem_ctrls.rdQLenPdf::4                       0                       # What read queue length does an incoming req see
system.mem_ctrls.rdQLenPdf::5                       0                       # What read queue length does an incoming req see
system.mem_ctrls.rdQLenPdf::6                       0                       # What read queue length does an incoming req see
system.mem_ctrls.rdQLenPdf::7                       0                       # What read queue length does an incoming req see
system.mem_ctrls.rdQLenPdf::8                       0                       # What read queue length does an incoming req see
system.mem_ctrls.rdQLenPdf::9                       0                       # What read queue length does an incoming req see
system.mem_ctrls.rdQLenPdf::10                      0                       # What read queue length does an incoming req see
system.mem_ctrls.rdQLenPdf::11                      0                       # What read queue length does an incoming req see
system.mem_ctrls.rdQLenPdf::12                      0                       # What read queue length does an incoming req see
system.mem_ctrls.rdQLenPdf::13                      0                       # What read queue length does an incoming req see
system.mem_ctrls.rdQLenPdf::14                      0                       # What read queue length does an incoming req see
system.mem_ctrls.rdQLenPdf::15                      0                       # What read queue length does an incoming req see
system.mem_ctrls.rdQLenPdf::16                      0                       # What read queue length does an incoming req see
system.mem_ctrls.rdQLenPdf::17                      0                       # What read queue length does an incoming req see
system.mem_ctrls.rdQLenPdf::18                      0                       # What read queue length does an incoming req see
system.mem_ctrls.rdQLenPdf::19                      0                       # What read queue length does an incoming req see
system.mem_ctrls.rdQLenPdf::20                      0                       # What read queue length does an incoming req see
system.mem_ctrls.rdQLenPdf::21                      0                       # What read queue length does an incoming req see
system.mem_ctrls.rdQLenPdf::22                      0                       # What read queue length does an incoming req see
system.mem_ctrls.rdQLenPdf::23                      0                       # What read queue length does an incoming req see
system.mem_ctrls.rdQLenPdf::24                      0                       # What read queue length does an incoming req see
system.mem_ctrls.rdQLenPdf::25                      0                       # What read queue length does an incoming req see
system.mem_ctrls.rdQLenPdf::26                      0                       # What read queue length does an incoming req see
system.mem_ctrls.rdQLenPdf::27                      0                       # What read queue length does an incoming req see
system.mem_ctrls.rdQLenPdf::28                      0                       # What read queue length does an incoming req see
system.mem_ctrls.rdQLenPdf::29                      0                       # What read queue length does an incoming req see
system.mem_ctrls.rdQLenPdf::30                      0                       # What read queue length does an incoming req see
system.mem_ctrls.rdQLenPdf::31                      0                       # What read queue length does an incoming req see
system.mem_ctrls.wrQLenPdf::0                       1                       # What write queue length does an incoming req see
system.mem_ctrls.wrQLenPdf::1                       1                       # What write queue length does an incoming req see
system.mem_ctrls.wrQLenPdf::2                       1                       # What write queue length does an incoming req see
system.mem_ctrls.wrQLenPdf::3                       1                       # What write queue length does an incoming req see
system.mem_ctrls.wrQLenPdf::4                       1                       # What write queue length does an incoming req see
system.mem_ctrls.wrQLenPdf::5                       1                       # What write queue length does an incoming req see
system.mem_ctrls.wrQLenPdf::6                       1                       # What write queue length does an incoming req see
system.mem_ctrls.wrQLenPdf::7                       1                       # What write queue length does an incoming req see
system.mem_ctrls.wrQLenPdf::8                       1                       # What write queue length does an incoming req see
system.mem_ctrls.wrQLenPdf::9                       1                       # What write queue length does an incoming req see
system.mem_ctrls.wrQLenPdf::10                      1                       # What write queue length does an incoming req see
system.mem_ctrls.wrQLenPdf::11                      1                       # What write queue length does an incoming req see
system.mem_ctrls.wrQLenPdf::12                      1                       # What write queue length does an incoming req see
system.mem_ctrls.wrQLenPdf::13                      1                       # What write queue length does an incoming req see
system.mem_ctrls.wrQLenPdf::14                      1                       # What write queue length does an incoming req see
system.mem_ctrls.wrQLenPdf::15                    400                       # What write queue length does an incoming req see
system.mem_ctrls.wrQLenPdf::16                    699                       # What write queue length does an incoming req see
system.mem_ctrls.wrQLenPdf::17                   2194                       # What write queue length does an incoming req see
system.mem_ctrls.wrQLenPdf::18                   2209                       # What write queue length does an incoming req see
system.mem_ctrls.wrQLenPdf::19                   2207                       # What write queue length does an incoming req see
system.mem_ctrls.wrQLenPdf::20                   2201                       # What write queue length does an incoming req see
system.mem_ctrls.wrQLenPdf::21                   2202                       # What write queue length does an incoming req see
system.mem_ctrls.wrQLenPdf::22                   2202                       # What write queue length does an incoming req see
system.mem_ctrls.wrQLenPdf::23                   2211                       # What write queue length does an incoming req see
system.mem_ctrls.wrQLenPdf::24                   2203                       # What write queue length does an incoming req see
system.mem_ctrls.wrQLenPdf::25                   2201                       # What write queue length does an incoming req see
system.mem_ctrls.wrQLenPdf::26                   2201                       # What write queue length does an incoming req see
system.mem_ctrls.wrQLenPdf::27                   2201                       # What write queue length does an incoming req see
system.mem_ctrls.wrQLenPdf::28                   2200                       # What write queue length does an incoming req see
system.mem_ctrls.wrQLenPdf::29                   2200                       # What write queue length does an incoming req see
system.mem_ctrls.wrQLenPdf::30                   2200                       # What write queue length does an incoming req see
system.mem_ctrls.wrQLenPdf::31                   2200                       # What write queue length does an incoming req see
system.mem_ctrls.wrQLenPdf::32                   2200                       # What write queue length does an incoming req see
system.mem_ctrls.wrQLenPdf::33                      0                       # What write queue length does an incoming req see
system.mem_ctrls.wrQLenPdf::34                      0                       # What write queue length does an incoming req see
system.mem_ctrls.wrQLenPdf::35                      0                       # What write queue length does an incoming req see
system.mem_ctrls.wrQLenPdf::36                      0                       # What write queue length does an incoming req see
system.mem_ctrls.wrQLenPdf::37                      0                       # What write queue length does an incoming req see
system.mem_ctrls.wrQLenPdf::38                      0                       # What write queue length does an incoming req see
system.mem_ctrls.wrQLenPdf::39                      0                       # What write queue length does an incoming req see
system.mem_ctrls.wrQLenPdf::40                      0                       # What write queue length does an incoming req see
system.mem_ctrls.wrQLenPdf::41                      0                       # What write queue length does an incoming req see
system.mem_ctrls.wrQLenPdf::42                      0                       # What write queue length does an incoming req see
system.mem_ctrls.wrQLenPdf::43                      0                       # What write queue length does an incoming req see
system.mem_ctrls.wrQLenPdf::44                      0                       # What write queue length does an incoming req see
system.mem_ctrls.wrQLenPdf::45                      0                       # What write queue length does an incoming req see
system.mem_ctrls.wrQLenPdf::46                      0                       # What write queue length does an incoming req see
system.mem_ctrls.wrQLenPdf::47                      0                       # What write queue length does an incoming req see
system.mem_ctrls.wrQLenPdf::48                      0                       # What write queue length does an incoming req see
system.mem_ctrls.wrQLenPdf::49                      0                       # What write queue length does an incoming req see
system.mem_ctrls.wrQLenPdf::50                      0                       # What write queue length does an incoming req see
system.mem_ctrls.wrQLenPdf::51                      0                       # What write queue length does an incoming req see
system.mem_ctrls.wrQLenPdf::52                      0                       # What write queue length does an incoming req see
system.mem_ctrls.wrQLenPdf::53                      0                       # What write queue length does an incoming req see
system.mem_ctrls.wrQLenPdf::54                      0                       # What write queue length does an incoming req see
system.mem_ctrls.wrQLenPdf::55                      0                       # What write queue length does an incoming req see
system.mem_ctrls.wrQLenPdf::56                      0                       # What write queue length does an incoming req see
system.mem_ctrls.wrQLenPdf::57                      0                       # What write queue length does an incoming req see
system.mem_ctrls.wrQLenPdf::58                      0                       # What write queue length does an incoming req see
system.mem_ctrls.wrQLenPdf::59                      0                       # What write queue length does an incoming req see
system.mem_ctrls.wrQLenPdf::60                      0                       # What write queue length does an incoming req see
system.mem_ctrls.wrQLenPdf::61                      0                       # What write queue length does an incoming req see
system.mem_ctrls.wrQLenPdf::62                      0                       # What write queue length does an incoming req see
system.mem_ctrls.wrQLenPdf::63                      0                       # What write queue length does an incoming req see
system.mem_ctrls.bytesPerActivate::samples       355957                       # Bytes accessed per row activation
system.mem_ctrls.bytesPerActivate::mean    457.421003                       # Bytes accessed per row activation
system.mem_ctrls.bytesPerActivate::gmean   272.659747                       # Bytes accessed per row activation
system.mem_ctrls.bytesPerActivate::stdev   401.487505                       # Bytes accessed per row activation
system.mem_ctrls.bytesPerActivate::0-127        82101     23.06%     23.06% # Bytes accessed per row activation
system.mem_ctrls.bytesPerActivate::128-255        87034     24.45%     47.52% # Bytes accessed per row activation
system.mem_ctrls.bytesPerActivate::256-383        30196      8.48%     56.00% # Bytes accessed per row activation
system.mem_ctrls.bytesPerActivate::384-511        18616      5.23%     61.23% # Bytes accessed per row activation
system.mem_ctrls.bytesPerActivate::512-639        13067      3.67%     64.90% # Bytes accessed per row activation
system.mem_ctrls.bytesPerActivate::640-767         9044      2.54%     67.44% # Bytes accessed per row activation
system.mem_ctrls.bytesPerActivate::768-895         9415      2.64%     70.09% # Bytes accessed per row activation
system.mem_ctrls.bytesPerActivate::896-1023         7670      2.15%     72.24% # Bytes accessed per row activation
system.mem_ctrls.bytesPerActivate::1024-1151        98814     27.76%    100.00% # Bytes accessed per row activation
system.mem_ctrls.bytesPerActivate::total       355957                       # Bytes accessed per row activation
system.mem_ctrls.rdPerTurnAround::samples         2200                       # Reads before turning the bus around for writes
system.mem_ctrls.rdPerTurnAround::mean    1139.881364                       # Reads before turning the bus around for writes
system.mem_ctrls.rdPerTurnAround::gmean    881.389089                       # Reads before turning the bus around for writes
system.mem_ctrls.rdPerTurnAround::stdev    767.201104                       # Reads before turning the bus around for writes
system.mem_ctrls.rdPerTurnAround::0-255           134      6.09%      6.09% # Reads before turning the bus around for writes
system.mem_ctrls.rdPerTurnAround::256-511          199      9.05%     15.14% # Reads before turning the bus around for writes
system.mem_ctrls.rdPerTurnAround::512-767          458     20.82%     35.95% # Reads before turning the bus around for writes
system.mem_ctrls.rdPerTurnAround::768-1023          438     19.91%     55.86% # Reads before turning the bus around for writes
system.mem_ctrls.rdPerTurnAround::1024-1279          274     12.45%     68.32% # Reads before turning the bus around for writes
system.mem_ctrls.rdPerTurnAround::1280-1535          191      8.68%     77.00% # Reads before turning the bus around for writes
system.mem_ctrls.rdPerTurnAround::1536-1791          141      6.41%     83.41% # Reads before turning the bus around for writes
system.mem_ctrls.rdPerTurnAround::1792-2047          112      5.09%     88.50% # Reads before turning the bus around for writes
system.mem_ctrls.rdPerTurnAround::2048-2303           76      3.45%     91.95% # Reads before turning the bus around for writes
system.mem_ctrls.rdPerTurnAround::2304-2559           62      2.82%     94.77% # Reads before turning the bus around for writes
system.mem_ctrls.rdPerTurnAround::2560-2815           32      1.45%     96.23% # Reads before turning the bus around for writes
system.mem_ctrls.rdPerTurnAround::2816-3071           25      1.14%     97.36% # Reads before turning the bus around for writes
system.mem_ctrls.rdPerTurnAround::3072-3327           19      0.86%     98.23% # Reads before turning the bus around for writes
system.mem_ctrls.rdPerTurnAround::3328-3583            8      0.36%     98.59% # Reads before turning the bus around for writes
system.mem_ctrls.rdPerTurnAround::3584-3839           11      0.50%     99.09% # Reads before turning the bus around for writes
system.mem_ctrls.rdPerTurnAround::3840-4095            2      0.09%     99.18% # Reads before turning the bus around for writes
system.mem_ctrls.rdPerTurnAround::4096-4351            8      0.36%     99.55% # Reads before turning the bus around for writes
system.mem_ctrls.rdPerTurnAround::4352-4607            4      0.18%     99.73% # Reads before turning the bus around for writes
system.mem_ctrls.rdPerTurnAround::4608-4863            4      0.18%     99.91% # Reads before turning the bus around for writes
system.mem_ctrls.rdPerTurnAround::6144-6399            2      0.09%    100.00% # Reads before turning the bus around for writes
system.mem_ctrls.rdPerTurnAround::total          2200                       # Reads before turning the bus around for writes
system.mem_ctrls.wrPerTurnAround::samples         2200                       # Writes before turning the bus around for reads
system.mem_ctrls.wrPerTurnAround::mean      16.508182                       # Writes before turning the bus around for reads
system.mem_ctrls.wrPerTurnAround::gmean     16.489371                       # Writes before turning the bus around for reads
system.mem_ctrls.wrPerTurnAround::stdev      0.802977                       # Writes before turning the bus around for reads
system.mem_ctrls.wrPerTurnAround::16             1500     68.18%     68.18% # Writes before turning the bus around for reads
system.mem_ctrls.wrPerTurnAround::17              298     13.55%     81.73% # Writes before turning the bus around for reads
system.mem_ctrls.wrPerTurnAround::18              386     17.55%     99.27% # Writes before turning the bus around for reads
system.mem_ctrls.wrPerTurnAround::19               16      0.73%    100.00% # Writes before turning the bus around for reads
system.mem_ctrls.wrPerTurnAround::total          2200                       # Writes before turning the bus around for reads
system.mem_ctrls.totQLat                  28453720750                       # Total ticks spent queuing
system.mem_ctrls.totMemAccLat             75475139500                       # Total ticks spent from burst creation until serviced by the DRAM
system.mem_ctrls.totBusLat                12539045000                       # Total ticks spent in databus transfers
system.mem_ctrls.avgQLat                     11346.05                       # Average queueing delay per DRAM burst
system.mem_ctrls.avgBusLat                    5000.00                       # Average bus latency per DRAM burst
system.mem_ctrls.avgMemAccLat                30096.05                       # Average memory access latency per DRAM burst
system.mem_ctrls.avgRdBW                       725.40                       # Average DRAM read bandwidth in MiByte/s
system.mem_ctrls.avgWrBW                        10.51                       # Average achieved write bandwidth in MiByte/s
system.mem_ctrls.avgRdBWSys                    426.33                       # Average system read bandwidth in MiByte/s
system.mem_ctrls.avgWrBWSys                     46.33                       # Average system write bandwidth in MiByte/s
system.mem_ctrls.peakBW                      12800.00                       # Theoretical peak bandwidth in MiByte/s
system.mem_ctrls.busUtil                         5.75                       # Data bus utilization in percentage
system.mem_ctrls.busUtilRead                     5.67                       # Data bus utilization in percentage for reads
system.mem_ctrls.busUtilWrite                    0.08                       # Data bus utilization in percentage for writes
system.mem_ctrls.avgRdQLen                       1.00                       # Average read queue length when enqueuing
system.mem_ctrls.avgWrQLen                      26.40                       # Average write queue length when enqueuing
system.mem_ctrls.readRowHits                  2153720                       # Number of row buffer hits during reads
system.mem_ctrls.writeRowHits                   34441                       # Number of row buffer hits during writes
system.mem_ctrls.readRowHitRate                 85.88                       # Row buffer hit rate for reads
system.mem_ctrls.writeRowHitRate                94.76                       # Row buffer hit rate for writes
system.mem_ctrls.avgGap                      67701.97                       # Average gap between requests
system.mem_ctrls.pageHitRate                    86.01                       # Row buffer hit rate, read and write combined
system.mem_ctrls_0.actEnergy               1423965900                       # Energy for activate commands per rank (pJ)
system.mem_ctrls_0.preEnergy                756836850                       # Energy for precharge commands per rank (pJ)
system.mem_ctrls_0.readEnergy             13089783420                       # Energy for read commands per rank (pJ)
system.mem_ctrls_0.writeEnergy              135375480                       # Energy for write commands per rank (pJ)
system.mem_ctrls_0.refreshEnergy         17466224880.000004                       # Energy for refresh commands per rank (pJ)
system.mem_ctrls_0.actBackEnergy          27053180970                       # Energy for active background per rank (pJ)
system.mem_ctrls_0.preBackEnergy            371217120                       # Energy for precharge background per rank (pJ)
system.mem_ctrls_0.actPowerDownEnergy     69469606140                       # Energy for active power-down per rank (pJ)
system.mem_ctrls_0.prePowerDownEnergy      3309352800                       # Energy for precharge power-down per rank (pJ)
system.mem_ctrls_0.selfRefreshEnergy     686040.000000                       # Energy for self refresh per rank (pJ)
system.mem_ctrls_0.totalEnergy           133076229600                       # Total energy per rank (pJ)
system.mem_ctrls_0.averagePower            601.452321                       # Core power per rank (mW)
system.mem_ctrls_0.totalIdleTime         160958557500                       # Total Idle time Per DRAM Rank
system.mem_ctrls_0.memoryStateTime::IDLE    147403000                       # Time in different power states
system.mem_ctrls_0.memoryStateTime::REF    7388426000                       # Time in different power states
system.mem_ctrls_0.memoryStateTime::SREF       556750                       # Time in different power states
system.mem_ctrls_0.memoryStateTime::PRE_PDN   8615694250                       # Time in different power states
system.mem_ctrls_0.memoryStateTime::ACT   52763580000                       # Time in different power states
system.mem_ctrls_0.memoryStateTime::ACT_PDN 152342493000                       # Time in different power states
system.mem_ctrls_1.actEnergy               1117631340                       # Energy for activate commands per rank (pJ)
system.mem_ctrls_1.preEnergy                594019965                       # Energy for precharge commands per rank (pJ)
system.mem_ctrls_1.readEnergy              4815972840                       # Energy for read commands per rank (pJ)
system.mem_ctrls_1.writeEnergy               54204480                       # Energy for write commands per rank (pJ)
system.mem_ctrls_1.refreshEnergy         18553523040.000004                       # Energy for refresh commands per rank (pJ)
system.mem_ctrls_1.actBackEnergy          14179080600                       # Energy for active background per rank (pJ)
system.mem_ctrls_1.preBackEnergy            616985760                       # Energy for precharge background per rank (pJ)
system.mem_ctrls_1.actPowerDownEnergy     61654211310                       # Energy for active power-down per rank (pJ)
system.mem_ctrls_1.prePowerDownEnergy     18396405120                       # Energy for precharge power-down per rank (pJ)
system.mem_ctrls_1.selfRefreshEnergy       2768660220                       # Energy for self refresh per rank (pJ)
system.mem_ctrls_1.totalEnergy           122763941985                       # Total energy per rank (pJ)
system.mem_ctrls_1.averagePower            554.844829                       # Core power per rank (mW)
system.mem_ctrls_1.totalIdleTime         188527951750                       # Total Idle time Per DRAM Rank
system.mem_ctrls_1.memoryStateTime::IDLE    840983750                       # Time in different power states
system.mem_ctrls_1.memoryStateTime::REF    7865544000                       # Time in different power states
system.mem_ctrls_1.memoryStateTime::SREF   5413484250                       # Time in different power states
system.mem_ctrls_1.memoryStateTime::PRE_PDN  47906915750                       # Time in different power states
system.mem_ctrls_1.memoryStateTime::ACT   24023642250                       # Time in different power states
system.mem_ctrls_1.memoryStateTime::ACT_PDN 135207583000                       # Time in different power states
system.pwrStateResidencyTicks::UNDEFINED 221258153000                       # Cumulative time (in ticks) in various power states
system.cpu_voltage_domain.voltage                   1                       # Voltage in Volts
system.cpu_clk_domain.clock                       500                       # Clock period in ticks
system.cpu.dstage2_mmu.stage2_tlb.walker.pwrStateResidencyTicks::UNDEFINED 221258153000                       # Cumulative time (in ticks) in various power states
system.cpu.dstage2_mmu.stage2_tlb.walker.walks            0                       # Table walker walks requested
system.cpu.dstage2_mmu.stage2_tlb.walker.walkRequestOrigin_Requested::Data            0                       # Table walker requests started/completed, data/inst
system.cpu.dstage2_mmu.stage2_tlb.walker.walkRequestOrigin_Requested::Inst            0                       # Table walker requests started/completed, data/inst
system.cpu.dstage2_mmu.stage2_tlb.walker.walkRequestOrigin_Requested::total            0                       # Table walker requests started/completed, data/inst
system.cpu.dstage2_mmu.stage2_tlb.walker.walkRequestOrigin_Completed::Data            0                       # Table walker requests started/completed, data/inst
system.cpu.dstage2_mmu.stage2_tlb.walker.walkRequestOrigin_Completed::Inst            0                       # Table walker requests started/completed, data/inst
system.cpu.dstage2_mmu.stage2_tlb.walker.walkRequestOrigin_Completed::total            0                       # Table walker requests started/completed, data/inst
system.cpu.dstage2_mmu.stage2_tlb.walker.walkRequestOrigin::total            0                       # Table walker requests started/completed, data/inst
system.cpu.dstage2_mmu.stage2_tlb.inst_hits            0                       # ITB inst hits
system.cpu.dstage2_mmu.stage2_tlb.inst_misses            0                       # ITB inst misses
system.cpu.dstage2_mmu.stage2_tlb.read_hits            0                       # DTB read hits
system.cpu.dstage2_mmu.stage2_tlb.read_misses            0                       # DTB read misses
system.cpu.dstage2_mmu.stage2_tlb.write_hits            0                       # DTB write hits
system.cpu.dstage2_mmu.stage2_tlb.write_misses            0                       # DTB write misses
system.cpu.dstage2_mmu.stage2_tlb.flush_tlb            0                       # Number of times complete TLB was flushed
system.cpu.dstage2_mmu.stage2_tlb.flush_tlb_mva            0                       # Number of times TLB was flushed by MVA
system.cpu.dstage2_mmu.stage2_tlb.flush_tlb_mva_asid            0                       # Number of times TLB was flushed by MVA & ASID
system.cpu.dstage2_mmu.stage2_tlb.flush_tlb_asid            0                       # Number of times TLB was flushed by ASID
system.cpu.dstage2_mmu.stage2_tlb.flush_entries            0                       # Number of entries that have been flushed from TLB
system.cpu.dstage2_mmu.stage2_tlb.align_faults            0                       # Number of TLB faults due to alignment restrictions
system.cpu.dstage2_mmu.stage2_tlb.prefetch_faults            0                       # Number of TLB faults due to prefetch
system.cpu.dstage2_mmu.stage2_tlb.domain_faults            0                       # Number of TLB faults due to domain restrictions
system.cpu.dstage2_mmu.stage2_tlb.perms_faults            0                       # Number of TLB faults due to permissions restrictions
system.cpu.dstage2_mmu.stage2_tlb.read_accesses            0                       # DTB read accesses
system.cpu.dstage2_mmu.stage2_tlb.write_accesses            0                       # DTB write accesses
system.cpu.dstage2_mmu.stage2_tlb.inst_accesses            0                       # ITB inst accesses
system.cpu.dstage2_mmu.stage2_tlb.hits              0                       # DTB hits
system.cpu.dstage2_mmu.stage2_tlb.misses            0                       # DTB misses
system.cpu.dstage2_mmu.stage2_tlb.accesses            0                       # DTB accesses
system.cpu.dtb.walker.pwrStateResidencyTicks::UNDEFINED 221258153000                       # Cumulative time (in ticks) in various power states
system.cpu.dtb.walker.walks                         0                       # Table walker walks requested
system.cpu.dtb.walker.walkRequestOrigin_Requested::Data            0                       # Table walker requests started/completed, data/inst
system.cpu.dtb.walker.walkRequestOrigin_Requested::Inst            0                       # Table walker requests started/completed, data/inst
system.cpu.dtb.walker.walkRequestOrigin_Requested::total            0                       # Table walker requests started/completed, data/inst
system.cpu.dtb.walker.walkRequestOrigin_Completed::Data            0                       # Table walker requests started/completed, data/inst
system.cpu.dtb.walker.walkRequestOrigin_Completed::Inst            0                       # Table walker requests started/completed, data/inst
system.cpu.dtb.walker.walkRequestOrigin_Completed::total            0                       # Table walker requests started/completed, data/inst
system.cpu.dtb.walker.walkRequestOrigin::total            0                       # Table walker requests started/completed, data/inst
system.cpu.dtb.inst_hits                            0                       # ITB inst hits
system.cpu.dtb.inst_misses                          0                       # ITB inst misses
system.cpu.dtb.read_hits                            0                       # DTB read hits
system.cpu.dtb.read_misses                          0                       # DTB read misses
system.cpu.dtb.write_hits                           0                       # DTB write hits
system.cpu.dtb.write_misses                         0                       # DTB write misses
system.cpu.dtb.flush_tlb                            0                       # Number of times complete TLB was flushed
system.cpu.dtb.flush_tlb_mva                        0                       # Number of times TLB was flushed by MVA
system.cpu.dtb.flush_tlb_mva_asid                   0                       # Number of times TLB was flushed by MVA & ASID
system.cpu.dtb.flush_tlb_asid                       0                       # Number of times TLB was flushed by ASID
system.cpu.dtb.flush_entries                        0                       # Number of entries that have been flushed from TLB
system.cpu.dtb.align_faults                         0                       # Number of TLB faults due to alignment restrictions
system.cpu.dtb.prefetch_faults                      0                       # Number of TLB faults due to prefetch
system.cpu.dtb.domain_faults                        0                       # Number of TLB faults due to domain restrictions
system.cpu.dtb.perms_faults                         0                       # Number of TLB faults due to permissions restrictions
system.cpu.dtb.read_accesses                        0                       # DTB read accesses
system.cpu.dtb.write_accesses                       0                       # DTB write accesses
system.cpu.dtb.inst_accesses                        0                       # ITB inst accesses
system.cpu.dtb.hits                                 0                       # DTB hits
system.cpu.dtb.misses                               0                       # DTB misses
system.cpu.dtb.accesses                             0                       # DTB accesses
system.cpu.istage2_mmu.stage2_tlb.walker.pwrStateResidencyTicks::UNDEFINED 221258153000                       # Cumulative time (in ticks) in various power states
system.cpu.istage2_mmu.stage2_tlb.walker.walks            0                       # Table walker walks requested
system.cpu.istage2_mmu.stage2_tlb.walker.walkRequestOrigin_Requested::Data            0                       # Table walker requests started/completed, data/inst
system.cpu.istage2_mmu.stage2_tlb.walker.walkRequestOrigin_Requested::Inst            0                       # Table walker requests started/completed, data/inst
system.cpu.istage2_mmu.stage2_tlb.walker.walkRequestOrigin_Requested::total            0                       # Table walker requests started/completed, data/inst
system.cpu.istage2_mmu.stage2_tlb.walker.walkRequestOrigin_Completed::Data            0                       # Table walker requests started/completed, data/inst
system.cpu.istage2_mmu.stage2_tlb.walker.walkRequestOrigin_Completed::Inst            0                       # Table walker requests started/completed, data/inst
system.cpu.istage2_mmu.stage2_tlb.walker.walkRequestOrigin_Completed::total            0                       # Table walker requests started/completed, data/inst
system.cpu.istage2_mmu.stage2_tlb.walker.walkRequestOrigin::total            0                       # Table walker requests started/completed, data/inst
system.cpu.istage2_mmu.stage2_tlb.inst_hits            0                       # ITB inst hits
system.cpu.istage2_mmu.stage2_tlb.inst_misses            0                       # ITB inst misses
system.cpu.istage2_mmu.stage2_tlb.read_hits            0                       # DTB read hits
system.cpu.istage2_mmu.stage2_tlb.read_misses            0                       # DTB read misses
system.cpu.istage2_mmu.stage2_tlb.write_hits            0                       # DTB write hits
system.cpu.istage2_mmu.stage2_tlb.write_misses            0                       # DTB write misses
system.cpu.istage2_mmu.stage2_tlb.flush_tlb            0                       # Number of times complete TLB was flushed
system.cpu.istage2_mmu.stage2_tlb.flush_tlb_mva            0                       # Number of times TLB was flushed by MVA
system.cpu.istage2_mmu.stage2_tlb.flush_tlb_mva_asid            0                       # Number of times TLB was flushed by MVA & ASID
system.cpu.istage2_mmu.stage2_tlb.flush_tlb_asid            0                       # Number of times TLB was flushed by ASID
system.cpu.istage2_mmu.stage2_tlb.flush_entries            0                       # Number of entries that have been flushed from TLB
system.cpu.istage2_mmu.stage2_tlb.align_faults            0                       # Number of TLB faults due to alignment restrictions
system.cpu.istage2_mmu.stage2_tlb.prefetch_faults            0                       # Number of TLB faults due to prefetch
system.cpu.istage2_mmu.stage2_tlb.domain_faults            0                       # Number of TLB faults due to domain restrictions
system.cpu.istage2_mmu.stage2_tlb.perms_faults            0                       # Number of TLB faults due to permissions restrictions
system.cpu.istage2_mmu.stage2_tlb.read_accesses            0                       # DTB read accesses
system.cpu.istage2_mmu.stage2_tlb.write_accesses            0                       # DTB write accesses
system.cpu.istage2_mmu.stage2_tlb.inst_accesses            0                       # ITB inst accesses
system.cpu.istage2_mmu.stage2_tlb.hits              0                       # DTB hits
system.cpu.istage2_mmu.stage2_tlb.misses            0                       # DTB misses
system.cpu.istage2_mmu.stage2_tlb.accesses            0                       # DTB accesses
system.cpu.itb.walker.pwrStateResidencyTicks::UNDEFINED 221258153000                       # Cumulative time (in ticks) in various power states
system.cpu.itb.walker.walks                         0                       # Table walker walks requested
system.cpu.itb.walker.walkRequestOrigin_Requested::Data            0                       # Table walker requests started/completed, data/inst
system.cpu.itb.walker.walkRequestOrigin_Requested::Inst            0                       # Table walker requests started/completed, data/inst
system.cpu.itb.walker.walkRequestOrigin_Requested::total            0                       # Table walker requests started/completed, data/inst
system.cpu.itb.walker.walkRequestOrigin_Completed::Data            0                       # Table walker requests started/completed, data/inst
system.cpu.itb.walker.walkRequestOrigin_Completed::Inst            0                       # Table walker requests started/completed, data/inst
system.cpu.itb.walker.walkRequestOrigin_Completed::total            0                       # Table walker requests started/completed, data/inst
system.cpu.itb.walker.walkRequestOrigin::total            0                       # Table walker requests started/completed, data/inst
system.cpu.itb.inst_hits                            0                       # ITB inst hits
system.cpu.itb.inst_misses                          0                       # ITB inst misses
system.cpu.itb.read_hits                            0                       # DTB read hits
system.cpu.itb.read_misses                          0                       # DTB read misses
system.cpu.itb.write_hits                           0                       # DTB write hits
system.cpu.itb.write_misses                         0                       # DTB write misses
system.cpu.itb.flush_tlb                            0                       # Number of times complete TLB was flushed
system.cpu.itb.flush_tlb_mva                        0                       # Number of times TLB was flushed by MVA
system.cpu.itb.flush_tlb_mva_asid                   0                       # Number of times TLB was flushed by MVA & ASID
system.cpu.itb.flush_tlb_asid                       0                       # Number of times TLB was flushed by ASID
system.cpu.itb.flush_entries                        0                       # Number of entries that have been flushed from TLB
system.cpu.itb.align_faults                         0                       # Number of TLB faults due to alignment restrictions
system.cpu.itb.prefetch_faults                      0                       # Number of TLB faults due to prefetch
system.cpu.itb.domain_faults                        0                       # Number of TLB faults due to domain restrictions
system.cpu.itb.perms_faults                         0                       # Number of TLB faults due to permissions restrictions
system.cpu.itb.read_accesses                        0                       # DTB read accesses
system.cpu.itb.write_accesses                       0                       # DTB write accesses
system.cpu.itb.inst_accesses                        0                       # ITB inst accesses
system.cpu.itb.hits                                 0                       # DTB hits
system.cpu.itb.misses                               0                       # DTB misses
system.cpu.itb.accesses                             0                       # DTB accesses
system.cpu.workload.numSyscalls                   239                       # Number of system calls
system.cpu.pwrStateResidencyTicks::ON    221258153000                       # Cumulative time (in ticks) in various power states
system.cpu.numCycles                        442516306                       # number of cpu cycles simulated
system.cpu.numWorkItemsStarted                      0                       # number of work items this cpu started
system.cpu.numWorkItemsCompleted                    0                       # number of work items this cpu completed
system.cpu.committedInsts                    43681717                       # Number of instructions committed
system.cpu.committedOps                      46438300                       # Number of ops (including micro ops) committed
system.cpu.num_int_alu_accesses              36550915                       # Number of integer alu accesses
system.cpu.num_fp_alu_accesses                     16                       # Number of float alu accesses
system.cpu.num_vec_alu_accesses                     0                       # Number of vector alu accesses
system.cpu.num_func_calls                      479840                       # number of times a function call or return occured
system.cpu.num_conditional_control_insts      9756862                       # number of instructions that are conditional controls
system.cpu.num_int_insts                     36550915                       # number of integer instructions
system.cpu.num_fp_insts                            16                       # number of float instructions
system.cpu.num_vec_insts                            0                       # number of vector instructions
system.cpu.num_int_register_reads            62405338                       # number of times the integer registers were read
system.cpu.num_int_register_writes           21331328                       # number of times the integer registers were written
system.cpu.num_fp_register_reads                   16                       # number of times the floating registers were read
system.cpu.num_fp_register_writes                   0                       # number of times the floating registers were written
system.cpu.num_vec_register_reads                   0                       # number of times the vector registers were read
system.cpu.num_vec_register_writes                  0                       # number of times the vector registers were written
system.cpu.num_cc_register_reads            167328405                       # number of times the CC registers were read
system.cpu.num_cc_register_writes            30215577                       # number of times the CC registers were written
system.cpu.num_mem_refs                      14199993                       # number of memory refs
system.cpu.num_load_insts                     9180679                       # Number of load instructions
system.cpu.num_store_insts                    5019314                       # Number of store instructions
system.cpu.num_idle_cycles                          0                       # Number of idle cycles
system.cpu.num_busy_cycles                  442516306                       # Number of busy cycles
system.cpu.not_idle_fraction                        1                       # Percentage of non-idle cycles
system.cpu.idle_fraction                            0                       # Percentage of idle cycles
system.cpu.Branches                          10612419                       # Number of branches fetched
system.cpu.op_class::No_OpClass                     0      0.00%      0.00% # Class of executed instruction
system.cpu.op_class::IntAlu                  32367989     69.48%     69.48% # Class of executed instruction
system.cpu.op_class::IntMult                    19468      0.04%     69.52% # Class of executed instruction
system.cpu.op_class::IntDiv                         0      0.00%     69.52% # Class of executed instruction
system.cpu.op_class::FloatAdd                       0      0.00%     69.52% # Class of executed instruction
system.cpu.op_class::FloatCmp                       0      0.00%     69.52% # Class of executed instruction
system.cpu.op_class::FloatCvt                       0      0.00%     69.52% # Class of executed instruction
system.cpu.op_class::FloatMult                      0      0.00%     69.52% # Class of executed instruction
system.cpu.op_class::FloatMultAcc                   0      0.00%     69.52% # Class of executed instruction
system.cpu.op_class::FloatDiv                       0      0.00%     69.52% # Class of executed instruction
system.cpu.op_class::FloatMisc                      0      0.00%     69.52% # Class of executed instruction
system.cpu.op_class::FloatSqrt                      0      0.00%     69.52% # Class of executed instruction
system.cpu.op_class::SimdAdd                        0      0.00%     69.52% # Class of executed instruction
system.cpu.op_class::SimdAddAcc                     0      0.00%     69.52% # Class of executed instruction
system.cpu.op_class::SimdAlu                        0      0.00%     69.52% # Class of executed instruction
system.cpu.op_class::SimdCmp                        0      0.00%     69.52% # Class of executed instruction
system.cpu.op_class::SimdCvt                        0      0.00%     69.52% # Class of executed instruction
system.cpu.op_class::SimdMisc                       0      0.00%     69.52% # Class of executed instruction
system.cpu.op_class::SimdMult                       0      0.00%     69.52% # Class of executed instruction
system.cpu.op_class::SimdMultAcc                    0      0.00%     69.52% # Class of executed instruction
system.cpu.op_class::SimdShift                      0      0.00%     69.52% # Class of executed instruction
system.cpu.op_class::SimdShiftAcc                   0      0.00%     69.52% # Class of executed instruction
system.cpu.op_class::SimdSqrt                       0      0.00%     69.52% # Class of executed instruction
system.cpu.op_class::SimdFloatAdd                   0      0.00%     69.52% # Class of executed instruction
system.cpu.op_class::SimdFloatAlu                   0      0.00%     69.52% # Class of executed instruction
system.cpu.op_class::SimdFloatCmp                   0      0.00%     69.52% # Class of executed instruction
system.cpu.op_class::SimdFloatCvt                   0      0.00%     69.52% # Class of executed instruction
system.cpu.op_class::SimdFloatDiv                   0      0.00%     69.52% # Class of executed instruction
system.cpu.op_class::SimdFloatMisc                  0      0.00%     69.52% # Class of executed instruction
system.cpu.op_class::SimdFloatMult                  0      0.00%     69.52% # Class of executed instruction
system.cpu.op_class::SimdFloatMultAcc               0      0.00%     69.52% # Class of executed instruction
system.cpu.op_class::SimdFloatSqrt                  0      0.00%     69.52% # Class of executed instruction
system.cpu.op_class::MemRead                  9180679     19.71%     89.23% # Class of executed instruction
system.cpu.op_class::MemWrite                 5019298     10.77%    100.00% # Class of executed instruction
system.cpu.op_class::FloatMemRead                   0      0.00%    100.00% # Class of executed instruction
system.cpu.op_class::FloatMemWrite                 16      0.00%    100.00% # Class of executed instruction
system.cpu.op_class::IprAccess                      0      0.00%    100.00% # Class of executed instruction
system.cpu.op_class::InstPrefetch                   0      0.00%    100.00% # Class of executed instruction
system.cpu.op_class::total                   46587450                       # Class of executed instruction
system.cpu.dcache.tags.pwrStateResidencyTicks::UNDEFINED 221258153000                       # Cumulative time (in ticks) in various power states
system.cpu.dcache.tags.replacements           2945612                       # number of replacements
system.cpu.dcache.tags.tagsinuse            31.999644                       # Cycle average of tags in use
system.cpu.dcache.tags.total_refs            11156255                       # Total number of references to valid blocks.
system.cpu.dcache.tags.sampled_refs           2945644                       # Sample count of references to valid blocks.
system.cpu.dcache.tags.avg_refs              3.787374                       # Average number of references to valid blocks.
system.cpu.dcache.tags.warmup_cycle            208000                       # Cycle when the warmup percentage was hit.
system.cpu.dcache.tags.occ_blocks::cpu.data    31.999644                       # Average occupied blocks per requestor
system.cpu.dcache.tags.occ_percent::cpu.data     0.999989                       # Average percentage of cache occupancy
system.cpu.dcache.tags.occ_percent::total     0.999989                       # Average percentage of cache occupancy
system.cpu.dcache.tags.occ_task_id_blocks::1024           32                       # Occupied blocks per task id
system.cpu.dcache.tags.age_task_id_blocks_1024::0           29                       # Occupied blocks per task id
system.cpu.dcache.tags.age_task_id_blocks_1024::1            3                       # Occupied blocks per task id
system.cpu.dcache.tags.occ_task_id_percent::1024            1                       # Percentage of cache occupancy per task id
system.cpu.dcache.tags.tag_accesses          59353240                       # Number of tag accesses
system.cpu.dcache.tags.data_accesses         59353240                       # Number of data accesses
system.cpu.dcache.pwrStateResidencyTicks::UNDEFINED 221258153000                       # Cumulative time (in ticks) in various power states
system.cpu.dcache.ReadReq_hits::cpu.data      6272983                       # number of ReadReq hits
system.cpu.dcache.ReadReq_hits::total         6272983                       # number of ReadReq hits
system.cpu.dcache.WriteReq_hits::cpu.data      4692812                       # number of WriteReq hits
system.cpu.dcache.WriteReq_hits::total        4692812                       # number of WriteReq hits
system.cpu.dcache.LoadLockedReq_hits::cpu.data        95230                       # number of LoadLockedReq hits
system.cpu.dcache.LoadLockedReq_hits::total        95230                       # number of LoadLockedReq hits
system.cpu.dcache.StoreCondReq_hits::cpu.data        95230                       # number of StoreCondReq hits
system.cpu.dcache.StoreCondReq_hits::total        95230                       # number of StoreCondReq hits
system.cpu.dcache.demand_hits::cpu.data      10965795                       # number of demand (read+write) hits
system.cpu.dcache.demand_hits::total         10965795                       # number of demand (read+write) hits
system.cpu.dcache.overall_hits::cpu.data     10965795                       # number of overall hits
system.cpu.dcache.overall_hits::total        10965795                       # number of overall hits
system.cpu.dcache.ReadReq_misses::cpu.data      2776059                       # number of ReadReq misses
system.cpu.dcache.ReadReq_misses::total       2776059                       # number of ReadReq misses
system.cpu.dcache.WriteReq_misses::cpu.data       169585                       # number of WriteReq misses
system.cpu.dcache.WriteReq_misses::total       169585                       # number of WriteReq misses
system.cpu.dcache.demand_misses::cpu.data      2945644                       # number of demand (read+write) misses
system.cpu.dcache.demand_misses::total        2945644                       # number of demand (read+write) misses
system.cpu.dcache.overall_misses::cpu.data      2945644                       # number of overall misses
system.cpu.dcache.overall_misses::total       2945644                       # number of overall misses
system.cpu.dcache.ReadReq_miss_latency::cpu.data 159354432000                       # number of ReadReq miss cycles
system.cpu.dcache.ReadReq_miss_latency::total 159354432000                       # number of ReadReq miss cycles
system.cpu.dcache.WriteReq_miss_latency::cpu.data   6723007000                       # number of WriteReq miss cycles
system.cpu.dcache.WriteReq_miss_latency::total   6723007000                       # number of WriteReq miss cycles
system.cpu.dcache.demand_miss_latency::cpu.data 166077439000                       # number of demand (read+write) miss cycles
system.cpu.dcache.demand_miss_latency::total 166077439000                       # number of demand (read+write) miss cycles
system.cpu.dcache.overall_miss_latency::cpu.data 166077439000                       # number of overall miss cycles
system.cpu.dcache.overall_miss_latency::total 166077439000                       # number of overall miss cycles
system.cpu.dcache.ReadReq_accesses::cpu.data      9049042                       # number of ReadReq accesses(hits+misses)
system.cpu.dcache.ReadReq_accesses::total      9049042                       # number of ReadReq accesses(hits+misses)
system.cpu.dcache.WriteReq_accesses::cpu.data      4862397                       # number of WriteReq accesses(hits+misses)
system.cpu.dcache.WriteReq_accesses::total      4862397                       # number of WriteReq accesses(hits+misses)
system.cpu.dcache.LoadLockedReq_accesses::cpu.data        95230                       # number of LoadLockedReq accesses(hits+misses)
system.cpu.dcache.LoadLockedReq_accesses::total        95230                       # number of LoadLockedReq accesses(hits+misses)
system.cpu.dcache.StoreCondReq_accesses::cpu.data        95230                       # number of StoreCondReq accesses(hits+misses)
system.cpu.dcache.StoreCondReq_accesses::total        95230                       # number of StoreCondReq accesses(hits+misses)
system.cpu.dcache.demand_accesses::cpu.data     13911439                       # number of demand (read+write) accesses
system.cpu.dcache.demand_accesses::total     13911439                       # number of demand (read+write) accesses
system.cpu.dcache.overall_accesses::cpu.data     13911439                       # number of overall (read+write) accesses
system.cpu.dcache.overall_accesses::total     13911439                       # number of overall (read+write) accesses
system.cpu.dcache.ReadReq_miss_rate::cpu.data     0.306779                       # miss rate for ReadReq accesses
system.cpu.dcache.ReadReq_miss_rate::total     0.306779                       # miss rate for ReadReq accesses
system.cpu.dcache.WriteReq_miss_rate::cpu.data     0.034877                       # miss rate for WriteReq accesses
system.cpu.dcache.WriteReq_miss_rate::total     0.034877                       # miss rate for WriteReq accesses
system.cpu.dcache.demand_miss_rate::cpu.data     0.211743                       # miss rate for demand accesses
system.cpu.dcache.demand_miss_rate::total     0.211743                       # miss rate for demand accesses
system.cpu.dcache.overall_miss_rate::cpu.data     0.211743                       # miss rate for overall accesses
system.cpu.dcache.overall_miss_rate::total     0.211743                       # miss rate for overall accesses
system.cpu.dcache.ReadReq_avg_miss_latency::cpu.data 57403.114271                       # average ReadReq miss latency
system.cpu.dcache.ReadReq_avg_miss_latency::total 57403.114271                       # average ReadReq miss latency
system.cpu.dcache.WriteReq_avg_miss_latency::cpu.data 39643.877701                       # average WriteReq miss latency
system.cpu.dcache.WriteReq_avg_miss_latency::total 39643.877701                       # average WriteReq miss latency
system.cpu.dcache.demand_avg_miss_latency::cpu.data 56380.689248                       # average overall miss latency
system.cpu.dcache.demand_avg_miss_latency::total 56380.689248                       # average overall miss latency
system.cpu.dcache.overall_avg_miss_latency::cpu.data 56380.689248                       # average overall miss latency
system.cpu.dcache.overall_avg_miss_latency::total 56380.689248                       # average overall miss latency
system.cpu.dcache.blocked_cycles::no_mshrs            0                       # number of cycles access was blocked
system.cpu.dcache.blocked_cycles::no_targets            0                       # number of cycles access was blocked
system.cpu.dcache.blocked::no_mshrs                 0                       # number of cycles access was blocked
system.cpu.dcache.blocked::no_targets               0                       # number of cycles access was blocked
system.cpu.dcache.avg_blocked_cycles::no_mshrs          nan                       # average number of cycles each access was blocked
system.cpu.dcache.avg_blocked_cycles::no_targets          nan                       # average number of cycles each access was blocked
system.cpu.dcache.writebacks::writebacks       318913                       # number of writebacks
system.cpu.dcache.writebacks::total            318913                       # number of writebacks
system.cpu.dcache.ReadReq_mshr_misses::cpu.data      2776059                       # number of ReadReq MSHR misses
system.cpu.dcache.ReadReq_mshr_misses::total      2776059                       # number of ReadReq MSHR misses
system.cpu.dcache.WriteReq_mshr_misses::cpu.data       169585                       # number of WriteReq MSHR misses
system.cpu.dcache.WriteReq_mshr_misses::total       169585                       # number of WriteReq MSHR misses
system.cpu.dcache.demand_mshr_misses::cpu.data      2945644                       # number of demand (read+write) MSHR misses
system.cpu.dcache.demand_mshr_misses::total      2945644                       # number of demand (read+write) MSHR misses
system.cpu.dcache.overall_mshr_misses::cpu.data      2945644                       # number of overall MSHR misses
system.cpu.dcache.overall_mshr_misses::total      2945644                       # number of overall MSHR misses
system.cpu.dcache.ReadReq_mshr_miss_latency::cpu.data 156578373000                       # number of ReadReq MSHR miss cycles
system.cpu.dcache.ReadReq_mshr_miss_latency::total 156578373000                       # number of ReadReq MSHR miss cycles
system.cpu.dcache.WriteReq_mshr_miss_latency::cpu.data   6553422000                       # number of WriteReq MSHR miss cycles
system.cpu.dcache.WriteReq_mshr_miss_latency::total   6553422000                       # number of WriteReq MSHR miss cycles
system.cpu.dcache.demand_mshr_miss_latency::cpu.data 163131795000                       # number of demand (read+write) MSHR miss cycles
system.cpu.dcache.demand_mshr_miss_latency::total 163131795000                       # number of demand (read+write) MSHR miss cycles
system.cpu.dcache.overall_mshr_miss_latency::cpu.data 163131795000                       # number of overall MSHR miss cycles
system.cpu.dcache.overall_mshr_miss_latency::total 163131795000                       # number of overall MSHR miss cycles
system.cpu.dcache.ReadReq_mshr_miss_rate::cpu.data     0.306779                       # mshr miss rate for ReadReq accesses
system.cpu.dcache.ReadReq_mshr_miss_rate::total     0.306779                       # mshr miss rate for ReadReq accesses
system.cpu.dcache.WriteReq_mshr_miss_rate::cpu.data     0.034877                       # mshr miss rate for WriteReq accesses
system.cpu.dcache.WriteReq_mshr_miss_rate::total     0.034877                       # mshr miss rate for WriteReq accesses
system.cpu.dcache.demand_mshr_miss_rate::cpu.data     0.211743                       # mshr miss rate for demand accesses
system.cpu.dcache.demand_mshr_miss_rate::total     0.211743                       # mshr miss rate for demand accesses
system.cpu.dcache.overall_mshr_miss_rate::cpu.data     0.211743                       # mshr miss rate for overall accesses
system.cpu.dcache.overall_mshr_miss_rate::total     0.211743                       # mshr miss rate for overall accesses
system.cpu.dcache.ReadReq_avg_mshr_miss_latency::cpu.data 56403.114271                       # average ReadReq mshr miss latency
system.cpu.dcache.ReadReq_avg_mshr_miss_latency::total 56403.114271                       # average ReadReq mshr miss latency
system.cpu.dcache.WriteReq_avg_mshr_miss_latency::cpu.data 38643.877701                       # average WriteReq mshr miss latency
system.cpu.dcache.WriteReq_avg_mshr_miss_latency::total 38643.877701                       # average WriteReq mshr miss latency
system.cpu.dcache.demand_avg_mshr_miss_latency::cpu.data 55380.689248                       # average overall mshr miss latency
system.cpu.dcache.demand_avg_mshr_miss_latency::total 55380.689248                       # average overall mshr miss latency
system.cpu.dcache.overall_avg_mshr_miss_latency::cpu.data 55380.689248                       # average overall mshr miss latency
system.cpu.dcache.overall_avg_mshr_miss_latency::total 55380.689248                       # average overall mshr miss latency
system.cpu.icache.tags.pwrStateResidencyTicks::UNDEFINED 221258153000                       # Cumulative time (in ticks) in various power states
system.cpu.icache.tags.replacements              1447                       # number of replacements
system.cpu.icache.tags.tagsinuse           620.946014                       # Cycle average of tags in use
system.cpu.icache.tags.total_refs            43811884                       # Total number of references to valid blocks.
system.cpu.icache.tags.sampled_refs              2135                       # Sample count of references to valid blocks.
system.cpu.icache.tags.avg_refs          20520.788759                       # Average number of references to valid blocks.
system.cpu.icache.tags.warmup_cycle             77000                       # Cycle when the warmup percentage was hit.
system.cpu.icache.tags.occ_blocks::cpu.inst   620.946014                       # Average occupied blocks per requestor
system.cpu.icache.tags.occ_percent::cpu.inst     0.606393                       # Average percentage of cache occupancy
system.cpu.icache.tags.occ_percent::total     0.606393                       # Average percentage of cache occupancy
system.cpu.icache.tags.occ_task_id_blocks::1024          688                       # Occupied blocks per task id
system.cpu.icache.tags.age_task_id_blocks_1024::0           63                       # Occupied blocks per task id
system.cpu.icache.tags.age_task_id_blocks_1024::1           13                       # Occupied blocks per task id
system.cpu.icache.tags.age_task_id_blocks_1024::4          612                       # Occupied blocks per task id
system.cpu.icache.tags.occ_task_id_percent::1024     0.671875                       # Percentage of cache occupancy per task id
system.cpu.icache.tags.tag_accesses          87630173                       # Number of tag accesses
system.cpu.icache.tags.data_accesses         87630173                       # Number of data accesses
system.cpu.icache.pwrStateResidencyTicks::UNDEFINED 221258153000                       # Cumulative time (in ticks) in various power states
system.cpu.icache.ReadReq_hits::cpu.inst     43811884                       # number of ReadReq hits
system.cpu.icache.ReadReq_hits::total        43811884                       # number of ReadReq hits
system.cpu.icache.demand_hits::cpu.inst      43811884                       # number of demand (read+write) hits
system.cpu.icache.demand_hits::total         43811884                       # number of demand (read+write) hits
system.cpu.icache.overall_hits::cpu.inst     43811884                       # number of overall hits
system.cpu.icache.overall_hits::total        43811884                       # number of overall hits
system.cpu.icache.ReadReq_misses::cpu.inst         2135                       # number of ReadReq misses
system.cpu.icache.ReadReq_misses::total          2135                       # number of ReadReq misses
system.cpu.icache.demand_misses::cpu.inst         2135                       # number of demand (read+write) misses
system.cpu.icache.demand_misses::total           2135                       # number of demand (read+write) misses
system.cpu.icache.overall_misses::cpu.inst         2135                       # number of overall misses
system.cpu.icache.overall_misses::total          2135                       # number of overall misses
system.cpu.icache.ReadReq_miss_latency::cpu.inst    117376000                       # number of ReadReq miss cycles
system.cpu.icache.ReadReq_miss_latency::total    117376000                       # number of ReadReq miss cycles
system.cpu.icache.demand_miss_latency::cpu.inst    117376000                       # number of demand (read+write) miss cycles
system.cpu.icache.demand_miss_latency::total    117376000                       # number of demand (read+write) miss cycles
system.cpu.icache.overall_miss_latency::cpu.inst    117376000                       # number of overall miss cycles
system.cpu.icache.overall_miss_latency::total    117376000                       # number of overall miss cycles
system.cpu.icache.ReadReq_accesses::cpu.inst     43814019                       # number of ReadReq accesses(hits+misses)
system.cpu.icache.ReadReq_accesses::total     43814019                       # number of ReadReq accesses(hits+misses)
system.cpu.icache.demand_accesses::cpu.inst     43814019                       # number of demand (read+write) accesses
system.cpu.icache.demand_accesses::total     43814019                       # number of demand (read+write) accesses
system.cpu.icache.overall_accesses::cpu.inst     43814019                       # number of overall (read+write) accesses
system.cpu.icache.overall_accesses::total     43814019                       # number of overall (read+write) accesses
system.cpu.icache.ReadReq_miss_rate::cpu.inst     0.000049                       # miss rate for ReadReq accesses
system.cpu.icache.ReadReq_miss_rate::total     0.000049                       # miss rate for ReadReq accesses
system.cpu.icache.demand_miss_rate::cpu.inst     0.000049                       # miss rate for demand accesses
system.cpu.icache.demand_miss_rate::total     0.000049                       # miss rate for demand accesses
system.cpu.icache.overall_miss_rate::cpu.inst     0.000049                       # miss rate for overall accesses
system.cpu.icache.overall_miss_rate::total     0.000049                       # miss rate for overall accesses
system.cpu.icache.ReadReq_avg_miss_latency::cpu.inst 54977.049180                       # average ReadReq miss latency
system.cpu.icache.ReadReq_avg_miss_latency::total 54977.049180                       # average ReadReq miss latency
system.cpu.icache.demand_avg_miss_latency::cpu.inst 54977.049180                       # average overall miss latency
system.cpu.icache.demand_avg_miss_latency::total 54977.049180                       # average overall miss latency
system.cpu.icache.overall_avg_miss_latency::cpu.inst 54977.049180                       # average overall miss latency
system.cpu.icache.overall_avg_miss_latency::total 54977.049180                       # average overall miss latency
system.cpu.icache.blocked_cycles::no_mshrs            0                       # number of cycles access was blocked
system.cpu.icache.blocked_cycles::no_targets            0                       # number of cycles access was blocked
system.cpu.icache.blocked::no_mshrs                 0                       # number of cycles access was blocked
system.cpu.icache.blocked::no_targets               0                       # number of cycles access was blocked
system.cpu.icache.avg_blocked_cycles::no_mshrs          nan                       # average number of cycles each access was blocked
system.cpu.icache.avg_blocked_cycles::no_targets          nan                       # average number of cycles each access was blocked
system.cpu.icache.writebacks::writebacks         1447                       # number of writebacks
system.cpu.icache.writebacks::total              1447                       # number of writebacks
system.cpu.icache.ReadReq_mshr_misses::cpu.inst         2135                       # number of ReadReq MSHR misses
system.cpu.icache.ReadReq_mshr_misses::total         2135                       # number of ReadReq MSHR misses
system.cpu.icache.demand_mshr_misses::cpu.inst         2135                       # number of demand (read+write) MSHR misses
system.cpu.icache.demand_mshr_misses::total         2135                       # number of demand (read+write) MSHR misses
system.cpu.icache.overall_mshr_misses::cpu.inst         2135                       # number of overall MSHR misses
system.cpu.icache.overall_mshr_misses::total         2135                       # number of overall MSHR misses
system.cpu.icache.ReadReq_mshr_miss_latency::cpu.inst    115241000                       # number of ReadReq MSHR miss cycles
system.cpu.icache.ReadReq_mshr_miss_latency::total    115241000                       # number of ReadReq MSHR miss cycles
system.cpu.icache.demand_mshr_miss_latency::cpu.inst    115241000                       # number of demand (read+write) MSHR miss cycles
system.cpu.icache.demand_mshr_miss_latency::total    115241000                       # number of demand (read+write) MSHR miss cycles
system.cpu.icache.overall_mshr_miss_latency::cpu.inst    115241000                       # number of overall MSHR miss cycles
system.cpu.icache.overall_mshr_miss_latency::total    115241000                       # number of overall MSHR miss cycles
system.cpu.icache.ReadReq_mshr_miss_rate::cpu.inst     0.000049                       # mshr miss rate for ReadReq accesses
system.cpu.icache.ReadReq_mshr_miss_rate::total     0.000049                       # mshr miss rate for ReadReq accesses
system.cpu.icache.demand_mshr_miss_rate::cpu.inst     0.000049                       # mshr miss rate for demand accesses
system.cpu.icache.demand_mshr_miss_rate::total     0.000049                       # mshr miss rate for demand accesses
system.cpu.icache.overall_mshr_miss_rate::cpu.inst     0.000049                       # mshr miss rate for overall accesses
system.cpu.icache.overall_mshr_miss_rate::total     0.000049                       # mshr miss rate for overall accesses
system.cpu.icache.ReadReq_avg_mshr_miss_latency::cpu.inst 53977.049180                       # average ReadReq mshr miss latency
system.cpu.icache.ReadReq_avg_mshr_miss_latency::total 53977.049180                       # average ReadReq mshr miss latency
system.cpu.icache.demand_avg_mshr_miss_latency::cpu.inst 53977.049180                       # average overall mshr miss latency
system.cpu.icache.demand_avg_mshr_miss_latency::total 53977.049180                       # average overall mshr miss latency
system.cpu.icache.overall_avg_mshr_miss_latency::cpu.inst 53977.049180                       # average overall mshr miss latency
system.cpu.icache.overall_avg_mshr_miss_latency::total 53977.049180                       # average overall mshr miss latency
system.membus.snoop_filter.tot_requests       5894838                       # Total number of requests made to the snoop filter.
system.membus.snoop_filter.hit_single_requests      2947061                       # Number of requests hitting in the snoop filter with a single holder of the requested data.
system.membus.snoop_filter.hit_multi_requests        35748                       # Number of requests hitting in the snoop filter with multiple (>1) holders of the requested data.
system.membus.snoop_filter.tot_snoops               0                       # Total number of snoops made to the snoop filter.
system.membus.snoop_filter.hit_single_snoops            0                       # Number of snoops hitting in the snoop filter with a single holder of the requested data.
system.membus.snoop_filter.hit_multi_snoops            0                       # Number of snoops hitting in the snoop filter with multiple (>1) holders of the requested data.
system.membus.pwrStateResidencyTicks::UNDEFINED 221258153000                       # Cumulative time (in ticks) in various power states
system.membus.trans_dist::ReadResp            2778194                       # Transaction distribution
system.membus.trans_dist::WritebackDirty       318913                       # Transaction distribution
system.membus.trans_dist::WritebackClean         1447                       # Transaction distribution
system.membus.trans_dist::CleanEvict          2626699                       # Transaction distribution
system.membus.trans_dist::ReadExReq            169585                       # Transaction distribution
system.membus.trans_dist::ReadExResp           169585                       # Transaction distribution
system.membus.trans_dist::ReadCleanReq           2135                       # Transaction distribution
system.membus.trans_dist::ReadSharedReq       2776059                       # Transaction distribution
system.membus.pkt_count_system.cpu.icache.mem_side::system.mem_ctrls.port         5717                       # Packet count per connected master and slave (bytes)
system.membus.pkt_count_system.cpu.dcache.mem_side::system.mem_ctrls.port      8836900                       # Packet count per connected master and slave (bytes)
system.membus.pkt_count::total                8842617                       # Packet count per connected master and slave (bytes)
system.membus.pkt_size_system.cpu.icache.mem_side::system.mem_ctrls.port       114624                       # Cumulative packet size per connected master and slave (bytes)
system.membus.pkt_size_system.cpu.dcache.mem_side::system.mem_ctrls.port    104465824                       # Cumulative packet size per connected master and slave (bytes)
system.membus.pkt_size::total               104580448                       # Cumulative packet size per connected master and slave (bytes)
system.membus.snoops                                0                       # Total snoops (count)
system.membus.snoopTraffic                          0                       # Total snoop traffic (bytes)
system.membus.snoop_fanout::samples           2947779                       # Request fanout histogram
system.membus.snoop_fanout::mean             0.012128                       # Request fanout histogram
system.membus.snoop_fanout::stdev            0.109456                       # Request fanout histogram
system.membus.snoop_fanout::underflows              0      0.00%      0.00% # Request fanout histogram
system.membus.snoop_fanout::0                 2912029     98.79%     98.79% # Request fanout histogram
system.membus.snoop_fanout::1                   35750      1.21%    100.00% # Request fanout histogram
system.membus.snoop_fanout::2                       0      0.00%    100.00% # Request fanout histogram
system.membus.snoop_fanout::overflows               0      0.00%    100.00% # Request fanout histogram
system.membus.snoop_fanout::min_value               0                       # Request fanout histogram
system.membus.snoop_fanout::max_value               1                       # Request fanout histogram
system.membus.snoop_fanout::total             2947779                       # Request fanout histogram
system.membus.reqLayer0.occupancy          6555844000                       # Layer occupancy (ticks)
system.membus.reqLayer0.utilization               3.0                       # Layer utilization (%)
system.membus.respLayer1.occupancy            6915000                       # Layer occupancy (ticks)
system.membus.respLayer1.utilization              0.0                       # Layer utilization (%)
system.membus.respLayer2.occupancy         9559055500                       # Layer occupancy (ticks)
system.membus.respLayer2.utilization              4.3                       # Layer utilization (%)

---------- End Simulation Statistics   ----------
