
---------- Begin Simulation Statistics ----------
sim_seconds                                  0.150119                       # Number of seconds simulated
sim_ticks                                150118733500                       # Number of ticks simulated
final_tick                               150118733500                       # Number of ticks from beginning of simulation (restored from checkpoints and never reset)
sim_freq                                 1000000000000                       # Frequency of simulated ticks
host_inst_rate                                 930128                       # Simulator instruction rate (inst/s)
host_op_rate                                   988824                       # Simulator op (including micro ops) rate (op/s)
host_tick_rate                             3196521818                       # Simulator tick rate (ticks/s)
host_mem_usage                                 662464                       # Number of bytes of host memory used
host_seconds                                    46.96                       # Real time elapsed on the host
sim_insts                                    43681715                       # Number of instructions simulated
sim_ops                                      46438296                       # Number of ops (including micro ops) simulated
system.voltage_domain.voltage                       1                       # Voltage in Volts
system.clk_domain.clock                          1000                       # Clock period in ticks
system.mem_ctrls.pwrStateResidencyTicks::UNDEFINED 150118733500                       # Cumulative time (in ticks) in various power states
system.mem_ctrls.bytes_read::cpu.inst          116144                       # Number of bytes read from this memory
system.mem_ctrls.bytes_read::cpu.data         5256784                       # Number of bytes read from this memory
system.mem_ctrls.bytes_read::total            5372928                       # Number of bytes read from this memory
system.mem_ctrls.bytes_inst_read::cpu.inst       116144                       # Number of instructions bytes read from this memory
system.mem_ctrls.bytes_inst_read::total        116144                       # Number of instructions bytes read from this memory
system.mem_ctrls.bytes_written::writebacks       356416                       # Number of bytes written to this memory
system.mem_ctrls.bytes_written::total          356416                       # Number of bytes written to this memory
system.mem_ctrls.num_reads::cpu.inst             7259                       # Number of read requests responded to by this memory
system.mem_ctrls.num_reads::cpu.data           328549                       # Number of read requests responded to by this memory
system.mem_ctrls.num_reads::total              335808                       # Number of read requests responded to by this memory
system.mem_ctrls.num_writes::writebacks         22276                       # Number of write requests responded to by this memory
system.mem_ctrls.num_writes::total              22276                       # Number of write requests responded to by this memory
system.mem_ctrls.bw_read::cpu.inst             773681                       # Total read bandwidth from this memory (bytes/s)
system.mem_ctrls.bw_read::cpu.data           35017508                       # Total read bandwidth from this memory (bytes/s)
system.mem_ctrls.bw_read::total              35791189                       # Total read bandwidth from this memory (bytes/s)
system.mem_ctrls.bw_inst_read::cpu.inst        773681                       # Instruction read bandwidth from this memory (bytes/s)
system.mem_ctrls.bw_inst_read::total           773681                       # Instruction read bandwidth from this memory (bytes/s)
system.mem_ctrls.bw_write::writebacks         2374227                       # Write bandwidth from this memory (bytes/s)
system.mem_ctrls.bw_write::total              2374227                       # Write bandwidth from this memory (bytes/s)
system.mem_ctrls.bw_total::writebacks         2374227                       # Total bandwidth to/from this memory (bytes/s)
system.mem_ctrls.bw_total::cpu.inst            773681                       # Total bandwidth to/from this memory (bytes/s)
system.mem_ctrls.bw_total::cpu.data          35017508                       # Total bandwidth to/from this memory (bytes/s)
system.mem_ctrls.bw_total::total             38165417                       # Total bandwidth to/from this memory (bytes/s)
system.mem_ctrls.readReqs                      335808                       # Number of read requests accepted
system.mem_ctrls.writeReqs                      22276                       # Number of write requests accepted
system.mem_ctrls.readBursts                    335808                       # Number of DRAM read bursts, including those serviced by the write queue
system.mem_ctrls.writeBursts                    22276                       # Number of DRAM write bursts, including those merged in the write queue
system.mem_ctrls.bytesReadDRAM               21298176                       # Total number of bytes read from DRAM
system.mem_ctrls.bytesReadWrQ                  193536                       # Total number of bytes read from write queue
system.mem_ctrls.bytesWritten                 1004864                       # Total number of bytes written to DRAM
system.mem_ctrls.bytesReadSys                 5372928                       # Total read bytes from the system interface side
system.mem_ctrls.bytesWrittenSys               356416                       # Total written bytes from the system interface side
system.mem_ctrls.servicedByWrQ                   3024                       # Number of DRAM read bursts serviced by the write queue
system.mem_ctrls.mergedWrBursts                  6543                       # Number of DRAM write bursts merged with an existing one
system.mem_ctrls.neitherReadNorWriteReqs            0                       # Number of requests that are neither read nor write
system.mem_ctrls.perBankRdBursts::0             61781                       # Per bank write bursts
system.mem_ctrls.perBankRdBursts::1             63722                       # Per bank write bursts
system.mem_ctrls.perBankRdBursts::2             22661                       # Per bank write bursts
system.mem_ctrls.perBankRdBursts::3               544                       # Per bank write bursts
system.mem_ctrls.perBankRdBursts::4               940                       # Per bank write bursts
system.mem_ctrls.perBankRdBursts::5              3835                       # Per bank write bursts
system.mem_ctrls.perBankRdBursts::6              7245                       # Per bank write bursts
system.mem_ctrls.perBankRdBursts::7             19061                       # Per bank write bursts
system.mem_ctrls.perBankRdBursts::8               683                       # Per bank write bursts
system.mem_ctrls.perBankRdBursts::9               653                       # Per bank write bursts
system.mem_ctrls.perBankRdBursts::10               35                       # Per bank write bursts
system.mem_ctrls.perBankRdBursts::11              702                       # Per bank write bursts
system.mem_ctrls.perBankRdBursts::12              586                       # Per bank write bursts
system.mem_ctrls.perBankRdBursts::13            29881                       # Per bank write bursts
system.mem_ctrls.perBankRdBursts::14            59198                       # Per bank write bursts
system.mem_ctrls.perBankRdBursts::15            61257                       # Per bank write bursts
system.mem_ctrls.perBankWrBursts::0               324                       # Per bank write bursts
system.mem_ctrls.perBankWrBursts::1               316                       # Per bank write bursts
system.mem_ctrls.perBankWrBursts::2               442                       # Per bank write bursts
system.mem_ctrls.perBankWrBursts::3                11                       # Per bank write bursts
system.mem_ctrls.perBankWrBursts::4                23                       # Per bank write bursts
system.mem_ctrls.perBankWrBursts::5               232                       # Per bank write bursts
system.mem_ctrls.perBankWrBursts::6              3308                       # Per bank write bursts
system.mem_ctrls.perBankWrBursts::7             10116                       # Per bank write bursts
system.mem_ctrls.perBankWrBursts::8                 0                       # Per bank write bursts
system.mem_ctrls.perBankWrBursts::9                 0                       # Per bank write bursts
system.mem_ctrls.perBankWrBursts::10                0                       # Per bank write bursts
system.mem_ctrls.perBankWrBursts::11                0                       # Per bank write bursts
system.mem_ctrls.perBankWrBursts::12              103                       # Per bank write bursts
system.mem_ctrls.perBankWrBursts::13              251                       # Per bank write bursts
system.mem_ctrls.perBankWrBursts::14              287                       # Per bank write bursts
system.mem_ctrls.perBankWrBursts::15              288                       # Per bank write bursts
system.mem_ctrls.numRdRetry                         0                       # Number of times read queue was full causing retry
system.mem_ctrls.numWrRetry                         0                       # Number of times write queue was full causing retry
system.mem_ctrls.totGap                  150118655500                       # Total gap between requests
system.mem_ctrls.readPktSize::0                     0                       # Read request sizes (log2)
system.mem_ctrls.readPktSize::1                     0                       # Read request sizes (log2)
system.mem_ctrls.readPktSize::2                     0                       # Read request sizes (log2)
system.mem_ctrls.readPktSize::3                     0                       # Read request sizes (log2)
system.mem_ctrls.readPktSize::4                335808                       # Read request sizes (log2)
system.mem_ctrls.readPktSize::5                     0                       # Read request sizes (log2)
system.mem_ctrls.readPktSize::6                     0                       # Read request sizes (log2)
system.mem_ctrls.writePktSize::0                    0                       # Write request sizes (log2)
system.mem_ctrls.writePktSize::1                    0                       # Write request sizes (log2)
system.mem_ctrls.writePktSize::2                    0                       # Write request sizes (log2)
system.mem_ctrls.writePktSize::3                    0                       # Write request sizes (log2)
system.mem_ctrls.writePktSize::4                22276                       # Write request sizes (log2)
system.mem_ctrls.writePktSize::5                    0                       # Write request sizes (log2)
system.mem_ctrls.writePktSize::6                    0                       # Write request sizes (log2)
system.mem_ctrls.rdQLenPdf::0                  332711                       # What read queue length does an incoming req see
system.mem_ctrls.rdQLenPdf::1                      73                       # What read queue length does an incoming req see
system.mem_ctrls.rdQLenPdf::2                       0                       # What read queue length does an incoming req see
system.mem_ctrls.rdQLenPdf::3                       0                       # What read queue length does an incoming req see
system.mem_ctrls.rdQLenPdf::4                       0                       # What read queue length does an incoming req see
system.mem_ctrls.rdQLenPdf::5                       0                       # What read queue length does an incoming req see
system.mem_ctrls.rdQLenPdf::6                       0                       # What read queue length does an incoming req see
system.mem_ctrls.rdQLenPdf::7                       0                       # What read queue length does an incoming req see
system.mem_ctrls.rdQLenPdf::8                       0                       # What read queue length does an incoming req see
system.mem_ctrls.rdQLenPdf::9                       0                       # What read queue length does an incoming req see
system.mem_ctrls.rdQLenPdf::10                      0                       # What read queue length does an incoming req see
system.mem_ctrls.rdQLenPdf::11                      0                       # What read queue length does an incoming req see
system.mem_ctrls.rdQLenPdf::12                      0                       # What read queue length does an incoming req see
system.mem_ctrls.rdQLenPdf::13                      0                       # What read queue length does an incoming req see
system.mem_ctrls.rdQLenPdf::14                      0                       # What read queue length does an incoming req see
system.mem_ctrls.rdQLenPdf::15                      0                       # What read queue length does an incoming req see
system.mem_ctrls.rdQLenPdf::16                      0                       # What read queue length does an incoming req see
system.mem_ctrls.rdQLenPdf::17                      0                       # What read queue length does an incoming req see
system.mem_ctrls.rdQLenPdf::18                      0                       # What read queue length does an incoming req see
system.mem_ctrls.rdQLenPdf::19                      0                       # What read queue length does an incoming req see
system.mem_ctrls.rdQLenPdf::20                      0                       # What read queue length does an incoming req see
system.mem_ctrls.rdQLenPdf::21                      0                       # What read queue length does an incoming req see
system.mem_ctrls.rdQLenPdf::22                      0                       # What read queue length does an incoming req see
system.mem_ctrls.rdQLenPdf::23                      0                       # What read queue length does an incoming req see
system.mem_ctrls.rdQLenPdf::24                      0                       # What read queue length does an incoming req see
system.mem_ctrls.rdQLenPdf::25                      0                       # What read queue length does an incoming req see
system.mem_ctrls.rdQLenPdf::26                      0                       # What read queue length does an incoming req see
system.mem_ctrls.rdQLenPdf::27                      0                       # What read queue length does an incoming req see
system.mem_ctrls.rdQLenPdf::28                      0                       # What read queue length does an incoming req see
system.mem_ctrls.rdQLenPdf::29                      0                       # What read queue length does an incoming req see
system.mem_ctrls.rdQLenPdf::30                      0                       # What read queue length does an incoming req see
system.mem_ctrls.rdQLenPdf::31                      0                       # What read queue length does an incoming req see
system.mem_ctrls.wrQLenPdf::0                       1                       # What write queue length does an incoming req see
system.mem_ctrls.wrQLenPdf::1                       1                       # What write queue length does an incoming req see
system.mem_ctrls.wrQLenPdf::2                       1                       # What write queue length does an incoming req see
system.mem_ctrls.wrQLenPdf::3                       1                       # What write queue length does an incoming req see
system.mem_ctrls.wrQLenPdf::4                       1                       # What write queue length does an incoming req see
system.mem_ctrls.wrQLenPdf::5                       1                       # What write queue length does an incoming req see
system.mem_ctrls.wrQLenPdf::6                       1                       # What write queue length does an incoming req see
system.mem_ctrls.wrQLenPdf::7                       1                       # What write queue length does an incoming req see
system.mem_ctrls.wrQLenPdf::8                       1                       # What write queue length does an incoming req see
system.mem_ctrls.wrQLenPdf::9                       1                       # What write queue length does an incoming req see
system.mem_ctrls.wrQLenPdf::10                      1                       # What write queue length does an incoming req see
system.mem_ctrls.wrQLenPdf::11                      1                       # What write queue length does an incoming req see
system.mem_ctrls.wrQLenPdf::12                      1                       # What write queue length does an incoming req see
system.mem_ctrls.wrQLenPdf::13                      1                       # What write queue length does an incoming req see
system.mem_ctrls.wrQLenPdf::14                      1                       # What write queue length does an incoming req see
system.mem_ctrls.wrQLenPdf::15                    770                       # What write queue length does an incoming req see
system.mem_ctrls.wrQLenPdf::16                    771                       # What write queue length does an incoming req see
system.mem_ctrls.wrQLenPdf::17                    886                       # What write queue length does an incoming req see
system.mem_ctrls.wrQLenPdf::18                    887                       # What write queue length does an incoming req see
system.mem_ctrls.wrQLenPdf::19                    887                       # What write queue length does an incoming req see
system.mem_ctrls.wrQLenPdf::20                    886                       # What write queue length does an incoming req see
system.mem_ctrls.wrQLenPdf::21                    886                       # What write queue length does an incoming req see
system.mem_ctrls.wrQLenPdf::22                    886                       # What write queue length does an incoming req see
system.mem_ctrls.wrQLenPdf::23                    886                       # What write queue length does an incoming req see
system.mem_ctrls.wrQLenPdf::24                    886                       # What write queue length does an incoming req see
system.mem_ctrls.wrQLenPdf::25                    886                       # What write queue length does an incoming req see
system.mem_ctrls.wrQLenPdf::26                    886                       # What write queue length does an incoming req see
system.mem_ctrls.wrQLenPdf::27                    886                       # What write queue length does an incoming req see
system.mem_ctrls.wrQLenPdf::28                    886                       # What write queue length does an incoming req see
system.mem_ctrls.wrQLenPdf::29                    886                       # What write queue length does an incoming req see
system.mem_ctrls.wrQLenPdf::30                    886                       # What write queue length does an incoming req see
system.mem_ctrls.wrQLenPdf::31                    886                       # What write queue length does an incoming req see
system.mem_ctrls.wrQLenPdf::32                    885                       # What write queue length does an incoming req see
system.mem_ctrls.wrQLenPdf::33                      0                       # What write queue length does an incoming req see
system.mem_ctrls.wrQLenPdf::34                      0                       # What write queue length does an incoming req see
system.mem_ctrls.wrQLenPdf::35                      0                       # What write queue length does an incoming req see
system.mem_ctrls.wrQLenPdf::36                      0                       # What write queue length does an incoming req see
system.mem_ctrls.wrQLenPdf::37                      0                       # What write queue length does an incoming req see
system.mem_ctrls.wrQLenPdf::38                      0                       # What write queue length does an incoming req see
system.mem_ctrls.wrQLenPdf::39                      0                       # What write queue length does an incoming req see
system.mem_ctrls.wrQLenPdf::40                      0                       # What write queue length does an incoming req see
system.mem_ctrls.wrQLenPdf::41                      0                       # What write queue length does an incoming req see
system.mem_ctrls.wrQLenPdf::42                      0                       # What write queue length does an incoming req see
system.mem_ctrls.wrQLenPdf::43                      0                       # What write queue length does an incoming req see
system.mem_ctrls.wrQLenPdf::44                      0                       # What write queue length does an incoming req see
system.mem_ctrls.wrQLenPdf::45                      0                       # What write queue length does an incoming req see
system.mem_ctrls.wrQLenPdf::46                      0                       # What write queue length does an incoming req see
system.mem_ctrls.wrQLenPdf::47                      0                       # What write queue length does an incoming req see
system.mem_ctrls.wrQLenPdf::48                      0                       # What write queue length does an incoming req see
system.mem_ctrls.wrQLenPdf::49                      0                       # What write queue length does an incoming req see
system.mem_ctrls.wrQLenPdf::50                      0                       # What write queue length does an incoming req see
system.mem_ctrls.wrQLenPdf::51                      0                       # What write queue length does an incoming req see
system.mem_ctrls.wrQLenPdf::52                      0                       # What write queue length does an incoming req see
system.mem_ctrls.wrQLenPdf::53                      0                       # What write queue length does an incoming req see
system.mem_ctrls.wrQLenPdf::54                      0                       # What write queue length does an incoming req see
system.mem_ctrls.wrQLenPdf::55                      0                       # What write queue length does an incoming req see
system.mem_ctrls.wrQLenPdf::56                      0                       # What write queue length does an incoming req see
system.mem_ctrls.wrQLenPdf::57                      0                       # What write queue length does an incoming req see
system.mem_ctrls.wrQLenPdf::58                      0                       # What write queue length does an incoming req see
system.mem_ctrls.wrQLenPdf::59                      0                       # What write queue length does an incoming req see
system.mem_ctrls.wrQLenPdf::60                      0                       # What write queue length does an incoming req see
system.mem_ctrls.wrQLenPdf::61                      0                       # What write queue length does an incoming req see
system.mem_ctrls.wrQLenPdf::62                      0                       # What write queue length does an incoming req see
system.mem_ctrls.wrQLenPdf::63                      0                       # What write queue length does an incoming req see
system.mem_ctrls.bytesPerActivate::samples        48828                       # Bytes accessed per row activation
system.mem_ctrls.bytesPerActivate::mean    456.751700                       # Bytes accessed per row activation
system.mem_ctrls.bytesPerActivate::gmean   273.181190                       # Bytes accessed per row activation
system.mem_ctrls.bytesPerActivate::stdev   389.411957                       # Bytes accessed per row activation
system.mem_ctrls.bytesPerActivate::0-127        13149     26.93%     26.93% # Bytes accessed per row activation
system.mem_ctrls.bytesPerActivate::128-255         8840     18.10%     45.03% # Bytes accessed per row activation
system.mem_ctrls.bytesPerActivate::256-383         3806      7.79%     52.83% # Bytes accessed per row activation
system.mem_ctrls.bytesPerActivate::384-511         2846      5.83%     58.66% # Bytes accessed per row activation
system.mem_ctrls.bytesPerActivate::512-639         3056      6.26%     64.92% # Bytes accessed per row activation
system.mem_ctrls.bytesPerActivate::640-767         2354      4.82%     69.74% # Bytes accessed per row activation
system.mem_ctrls.bytesPerActivate::768-895         1666      3.41%     73.15% # Bytes accessed per row activation
system.mem_ctrls.bytesPerActivate::896-1023         1271      2.60%     75.75% # Bytes accessed per row activation
system.mem_ctrls.bytesPerActivate::1024-1151        11840     24.25%    100.00% # Bytes accessed per row activation
system.mem_ctrls.bytesPerActivate::total        48828                       # Bytes accessed per row activation
system.mem_ctrls.rdPerTurnAround::samples          885                       # Reads before turning the bus around for writes
system.mem_ctrls.rdPerTurnAround::mean     375.065537                       # Reads before turning the bus around for writes
system.mem_ctrls.rdPerTurnAround::gmean    215.941352                       # Reads before turning the bus around for writes
system.mem_ctrls.rdPerTurnAround::stdev    416.595757                       # Reads before turning the bus around for writes
system.mem_ctrls.rdPerTurnAround::0-255           427     48.25%     48.25% # Reads before turning the bus around for writes
system.mem_ctrls.rdPerTurnAround::256-511          211     23.84%     72.09% # Reads before turning the bus around for writes
system.mem_ctrls.rdPerTurnAround::512-767          158     17.85%     89.94% # Reads before turning the bus around for writes
system.mem_ctrls.rdPerTurnAround::768-1023           49      5.54%     95.48% # Reads before turning the bus around for writes
system.mem_ctrls.rdPerTurnAround::1024-1279           12      1.36%     96.84% # Reads before turning the bus around for writes
system.mem_ctrls.rdPerTurnAround::1280-1535           10      1.13%     97.97% # Reads before turning the bus around for writes
system.mem_ctrls.rdPerTurnAround::1536-1791            5      0.56%     98.53% # Reads before turning the bus around for writes
system.mem_ctrls.rdPerTurnAround::1792-2047            4      0.45%     98.98% # Reads before turning the bus around for writes
system.mem_ctrls.rdPerTurnAround::2048-2303            1      0.11%     99.10% # Reads before turning the bus around for writes
system.mem_ctrls.rdPerTurnAround::2304-2559            4      0.45%     99.55% # Reads before turning the bus around for writes
system.mem_ctrls.rdPerTurnAround::2816-3071            2      0.23%     99.77% # Reads before turning the bus around for writes
system.mem_ctrls.rdPerTurnAround::3072-3327            1      0.11%     99.89% # Reads before turning the bus around for writes
system.mem_ctrls.rdPerTurnAround::4608-4863            1      0.11%    100.00% # Reads before turning the bus around for writes
system.mem_ctrls.rdPerTurnAround::total           885                       # Reads before turning the bus around for writes
system.mem_ctrls.wrPerTurnAround::samples          885                       # Writes before turning the bus around for reads
system.mem_ctrls.wrPerTurnAround::mean      17.741243                       # Writes before turning the bus around for reads
system.mem_ctrls.wrPerTurnAround::gmean     17.727626                       # Writes before turning the bus around for reads
system.mem_ctrls.wrPerTurnAround::stdev      0.675814                       # Writes before turning the bus around for reads
system.mem_ctrls.wrPerTurnAround::16              115     12.99%     12.99% # Writes before turning the bus around for reads
system.mem_ctrls.wrPerTurnAround::17                1      0.11%     13.11% # Writes before turning the bus around for reads
system.mem_ctrls.wrPerTurnAround::18              767     86.67%     99.77% # Writes before turning the bus around for reads
system.mem_ctrls.wrPerTurnAround::19                2      0.23%    100.00% # Writes before turning the bus around for reads
system.mem_ctrls.wrPerTurnAround::total           885                       # Writes before turning the bus around for reads
system.mem_ctrls.totQLat                   6114566250                       # Total ticks spent queuing
system.mem_ctrls.totMemAccLat             12354266250                       # Total ticks spent from burst creation until serviced by the DRAM
system.mem_ctrls.totBusLat                 1663920000                       # Total ticks spent in databus transfers
system.mem_ctrls.avgQLat                     18373.98                       # Average queueing delay per DRAM burst
system.mem_ctrls.avgBusLat                    5000.00                       # Average bus latency per DRAM burst
system.mem_ctrls.avgMemAccLat                37123.98                       # Average memory access latency per DRAM burst
system.mem_ctrls.avgRdBW                       141.88                       # Average DRAM read bandwidth in MiByte/s
system.mem_ctrls.avgWrBW                         6.69                       # Average achieved write bandwidth in MiByte/s
system.mem_ctrls.avgRdBWSys                     35.79                       # Average system read bandwidth in MiByte/s
system.mem_ctrls.avgWrBWSys                      2.37                       # Average system write bandwidth in MiByte/s
system.mem_ctrls.peakBW                      12800.00                       # Theoretical peak bandwidth in MiByte/s
system.mem_ctrls.busUtil                         1.16                       # Data bus utilization in percentage
system.mem_ctrls.busUtilRead                     1.11                       # Data bus utilization in percentage for reads
system.mem_ctrls.busUtilWrite                    0.05                       # Data bus utilization in percentage for writes
system.mem_ctrls.avgRdQLen                       1.00                       # Average read queue length when enqueuing
system.mem_ctrls.avgWrQLen                      24.76                       # Average write queue length when enqueuing
system.mem_ctrls.readRowHits                   285430                       # Number of row buffer hits during reads
system.mem_ctrls.writeRowHits                   14222                       # Number of row buffer hits during writes
system.mem_ctrls.readRowHitRate                 85.77                       # Row buffer hit rate for reads
system.mem_ctrls.writeRowHitRate                90.40                       # Row buffer hit rate for writes
system.mem_ctrls.avgGap                     419227.49                       # Average gap between requests
system.mem_ctrls.pageHitRate                    85.98                       # Row buffer hit rate, read and write combined
system.mem_ctrls_0.actEnergy                223439160                       # Energy for activate commands per rank (pJ)
system.mem_ctrls_0.preEnergy                118749345                       # Energy for precharge commands per rank (pJ)
system.mem_ctrls_0.readEnergy              1283693460                       # Energy for read commands per rank (pJ)
system.mem_ctrls_0.writeEnergy               77109840                       # Energy for write commands per rank (pJ)
system.mem_ctrls_0.refreshEnergy         12050631840.000002                       # Energy for refresh commands per rank (pJ)
system.mem_ctrls_0.actBackEnergy           5266969290                       # Energy for active background per rank (pJ)
system.mem_ctrls_0.preBackEnergy            437226240                       # Energy for precharge background per rank (pJ)
system.mem_ctrls_0.actPowerDownEnergy     38437604010                       # Energy for active power-down per rank (pJ)
system.mem_ctrls_0.prePowerDownEnergy     15955972800                       # Energy for precharge power-down per rank (pJ)
system.mem_ctrls_0.selfRefreshEnergy       3855550980                       # Energy for self refresh per rank (pJ)
system.mem_ctrls_0.totalEnergy            77712472155                       # Total energy per rank (pJ)
system.mem_ctrls_0.averagePower            517.673380                       # Core power per rank (mW)
system.mem_ctrls_0.totalIdleTime         137417233750                       # Total Idle time Per DRAM Rank
system.mem_ctrls_0.memoryStateTime::IDLE    619409500                       # Time in different power states
system.mem_ctrls_0.memoryStateTime::REF    5110448000                       # Time in different power states
system.mem_ctrls_0.memoryStateTime::SREF  11572422000                       # Time in different power states
system.mem_ctrls_0.memoryStateTime::PRE_PDN  41552095750                       # Time in different power states
system.mem_ctrls_0.memoryStateTime::ACT    6971423750                       # Time in different power states
system.mem_ctrls_0.memoryStateTime::ACT_PDN  84292934500                       # Time in different power states
system.mem_ctrls_1.actEnergy                125228460                       # Energy for activate commands per rank (pJ)
system.mem_ctrls_1.preEnergy                 66552915                       # Energy for precharge commands per rank (pJ)
system.mem_ctrls_1.readEnergy              1092384300                       # Energy for read commands per rank (pJ)
system.mem_ctrls_1.writeEnergy                4849380                       # Energy for write commands per rank (pJ)
system.mem_ctrls_1.refreshEnergy         9066554640.000002                       # Energy for refresh commands per rank (pJ)
system.mem_ctrls_1.actBackEnergy           3665064660                       # Energy for active background per rank (pJ)
system.mem_ctrls_1.preBackEnergy            412075200                       # Energy for precharge background per rank (pJ)
system.mem_ctrls_1.actPowerDownEnergy     26670211650                       # Energy for active power-down per rank (pJ)
system.mem_ctrls_1.prePowerDownEnergy     12178067520                       # Energy for precharge power-down per rank (pJ)
system.mem_ctrls_1.selfRefreshEnergy      13377172320                       # Energy for self refresh per rank (pJ)
system.mem_ctrls_1.totalEnergy            66661248075                       # Total energy per rank (pJ)
system.mem_ctrls_1.averagePower            444.056824                       # Core power per rank (mW)
system.mem_ctrls_1.totalIdleTime         141001340000                       # Total Idle time Per DRAM Rank
system.mem_ctrls_1.memoryStateTime::IDLE    655409000                       # Time in different power states
system.mem_ctrls_1.memoryStateTime::REF    3849012000                       # Time in different power states
system.mem_ctrls_1.memoryStateTime::SREF  50800310500                       # Time in different power states
system.mem_ctrls_1.memoryStateTime::PRE_PDN  31713698500                       # Time in different power states
system.mem_ctrls_1.memoryStateTime::ACT    4612930750                       # Time in different power states
system.mem_ctrls_1.memoryStateTime::ACT_PDN  58487372750                       # Time in different power states
system.pwrStateResidencyTicks::UNDEFINED 150118733500                       # Cumulative time (in ticks) in various power states
system.cpu_voltage_domain.voltage                   1                       # Voltage in Volts
system.cpu_clk_domain.clock                       500                       # Clock period in ticks
system.cpu.dstage2_mmu.stage2_tlb.walker.pwrStateResidencyTicks::UNDEFINED 150118733500                       # Cumulative time (in ticks) in various power states
system.cpu.dstage2_mmu.stage2_tlb.walker.walks            0                       # Table walker walks requested
system.cpu.dstage2_mmu.stage2_tlb.walker.walkRequestOrigin_Requested::Data            0                       # Table walker requests started/completed, data/inst
system.cpu.dstage2_mmu.stage2_tlb.walker.walkRequestOrigin_Requested::Inst            0                       # Table walker requests started/completed, data/inst
system.cpu.dstage2_mmu.stage2_tlb.walker.walkRequestOrigin_Requested::total            0                       # Table walker requests started/completed, data/inst
system.cpu.dstage2_mmu.stage2_tlb.walker.walkRequestOrigin_Completed::Data            0                       # Table walker requests started/completed, data/inst
system.cpu.dstage2_mmu.stage2_tlb.walker.walkRequestOrigin_Completed::Inst            0                       # Table walker requests started/completed, data/inst
system.cpu.dstage2_mmu.stage2_tlb.walker.walkRequestOrigin_Completed::total            0                       # Table walker requests started/completed, data/inst
system.cpu.dstage2_mmu.stage2_tlb.walker.walkRequestOrigin::total            0                       # Table walker requests started/completed, data/inst
system.cpu.dstage2_mmu.stage2_tlb.inst_hits            0                       # ITB inst hits
system.cpu.dstage2_mmu.stage2_tlb.inst_misses            0                       # ITB inst misses
system.cpu.dstage2_mmu.stage2_tlb.read_hits            0                       # DTB read hits
system.cpu.dstage2_mmu.stage2_tlb.read_misses            0                       # DTB read misses
system.cpu.dstage2_mmu.stage2_tlb.write_hits            0                       # DTB write hits
system.cpu.dstage2_mmu.stage2_tlb.write_misses            0                       # DTB write misses
system.cpu.dstage2_mmu.stage2_tlb.flush_tlb            0                       # Number of times complete TLB was flushed
system.cpu.dstage2_mmu.stage2_tlb.flush_tlb_mva            0                       # Number of times TLB was flushed by MVA
system.cpu.dstage2_mmu.stage2_tlb.flush_tlb_mva_asid            0                       # Number of times TLB was flushed by MVA & ASID
system.cpu.dstage2_mmu.stage2_tlb.flush_tlb_asid            0                       # Number of times TLB was flushed by ASID
system.cpu.dstage2_mmu.stage2_tlb.flush_entries            0                       # Number of entries that have been flushed from TLB
system.cpu.dstage2_mmu.stage2_tlb.align_faults            0                       # Number of TLB faults due to alignment restrictions
system.cpu.dstage2_mmu.stage2_tlb.prefetch_faults            0                       # Number of TLB faults due to prefetch
system.cpu.dstage2_mmu.stage2_tlb.domain_faults            0                       # Number of TLB faults due to domain restrictions
system.cpu.dstage2_mmu.stage2_tlb.perms_faults            0                       # Number of TLB faults due to permissions restrictions
system.cpu.dstage2_mmu.stage2_tlb.read_accesses            0                       # DTB read accesses
system.cpu.dstage2_mmu.stage2_tlb.write_accesses            0                       # DTB write accesses
system.cpu.dstage2_mmu.stage2_tlb.inst_accesses            0                       # ITB inst accesses
system.cpu.dstage2_mmu.stage2_tlb.hits              0                       # DTB hits
system.cpu.dstage2_mmu.stage2_tlb.misses            0                       # DTB misses
system.cpu.dstage2_mmu.stage2_tlb.accesses            0                       # DTB accesses
system.cpu.dtb.walker.pwrStateResidencyTicks::UNDEFINED 150118733500                       # Cumulative time (in ticks) in various power states
system.cpu.dtb.walker.walks                         0                       # Table walker walks requested
system.cpu.dtb.walker.walkRequestOrigin_Requested::Data            0                       # Table walker requests started/completed, data/inst
system.cpu.dtb.walker.walkRequestOrigin_Requested::Inst            0                       # Table walker requests started/completed, data/inst
system.cpu.dtb.walker.walkRequestOrigin_Requested::total            0                       # Table walker requests started/completed, data/inst
system.cpu.dtb.walker.walkRequestOrigin_Completed::Data            0                       # Table walker requests started/completed, data/inst
system.cpu.dtb.walker.walkRequestOrigin_Completed::Inst            0                       # Table walker requests started/completed, data/inst
system.cpu.dtb.walker.walkRequestOrigin_Completed::total            0                       # Table walker requests started/completed, data/inst
system.cpu.dtb.walker.walkRequestOrigin::total            0                       # Table walker requests started/completed, data/inst
system.cpu.dtb.inst_hits                            0                       # ITB inst hits
system.cpu.dtb.inst_misses                          0                       # ITB inst misses
system.cpu.dtb.read_hits                            0                       # DTB read hits
system.cpu.dtb.read_misses                          0                       # DTB read misses
system.cpu.dtb.write_hits                           0                       # DTB write hits
system.cpu.dtb.write_misses                         0                       # DTB write misses
system.cpu.dtb.flush_tlb                            0                       # Number of times complete TLB was flushed
system.cpu.dtb.flush_tlb_mva                        0                       # Number of times TLB was flushed by MVA
system.cpu.dtb.flush_tlb_mva_asid                   0                       # Number of times TLB was flushed by MVA & ASID
system.cpu.dtb.flush_tlb_asid                       0                       # Number of times TLB was flushed by ASID
system.cpu.dtb.flush_entries                        0                       # Number of entries that have been flushed from TLB
system.cpu.dtb.align_faults                         0                       # Number of TLB faults due to alignment restrictions
system.cpu.dtb.prefetch_faults                      0                       # Number of TLB faults due to prefetch
system.cpu.dtb.domain_faults                        0                       # Number of TLB faults due to domain restrictions
system.cpu.dtb.perms_faults                         0                       # Number of TLB faults due to permissions restrictions
system.cpu.dtb.read_accesses                        0                       # DTB read accesses
system.cpu.dtb.write_accesses                       0                       # DTB write accesses
system.cpu.dtb.inst_accesses                        0                       # ITB inst accesses
system.cpu.dtb.hits                                 0                       # DTB hits
system.cpu.dtb.misses                               0                       # DTB misses
system.cpu.dtb.accesses                             0                       # DTB accesses
system.cpu.istage2_mmu.stage2_tlb.walker.pwrStateResidencyTicks::UNDEFINED 150118733500                       # Cumulative time (in ticks) in various power states
system.cpu.istage2_mmu.stage2_tlb.walker.walks            0                       # Table walker walks requested
system.cpu.istage2_mmu.stage2_tlb.walker.walkRequestOrigin_Requested::Data            0                       # Table walker requests started/completed, data/inst
system.cpu.istage2_mmu.stage2_tlb.walker.walkRequestOrigin_Requested::Inst            0                       # Table walker requests started/completed, data/inst
system.cpu.istage2_mmu.stage2_tlb.walker.walkRequestOrigin_Requested::total            0                       # Table walker requests started/completed, data/inst
system.cpu.istage2_mmu.stage2_tlb.walker.walkRequestOrigin_Completed::Data            0                       # Table walker requests started/completed, data/inst
system.cpu.istage2_mmu.stage2_tlb.walker.walkRequestOrigin_Completed::Inst            0                       # Table walker requests started/completed, data/inst
system.cpu.istage2_mmu.stage2_tlb.walker.walkRequestOrigin_Completed::total            0                       # Table walker requests started/completed, data/inst
system.cpu.istage2_mmu.stage2_tlb.walker.walkRequestOrigin::total            0                       # Table walker requests started/completed, data/inst
system.cpu.istage2_mmu.stage2_tlb.inst_hits            0                       # ITB inst hits
system.cpu.istage2_mmu.stage2_tlb.inst_misses            0                       # ITB inst misses
system.cpu.istage2_mmu.stage2_tlb.read_hits            0                       # DTB read hits
system.cpu.istage2_mmu.stage2_tlb.read_misses            0                       # DTB read misses
system.cpu.istage2_mmu.stage2_tlb.write_hits            0                       # DTB write hits
system.cpu.istage2_mmu.stage2_tlb.write_misses            0                       # DTB write misses
system.cpu.istage2_mmu.stage2_tlb.flush_tlb            0                       # Number of times complete TLB was flushed
system.cpu.istage2_mmu.stage2_tlb.flush_tlb_mva            0                       # Number of times TLB was flushed by MVA
system.cpu.istage2_mmu.stage2_tlb.flush_tlb_mva_asid            0                       # Number of times TLB was flushed by MVA & ASID
system.cpu.istage2_mmu.stage2_tlb.flush_tlb_asid            0                       # Number of times TLB was flushed by ASID
system.cpu.istage2_mmu.stage2_tlb.flush_entries            0                       # Number of entries that have been flushed from TLB
system.cpu.istage2_mmu.stage2_tlb.align_faults            0                       # Number of TLB faults due to alignment restrictions
system.cpu.istage2_mmu.stage2_tlb.prefetch_faults            0                       # Number of TLB faults due to prefetch
system.cpu.istage2_mmu.stage2_tlb.domain_faults            0                       # Number of TLB faults due to domain restrictions
system.cpu.istage2_mmu.stage2_tlb.perms_faults            0                       # Number of TLB faults due to permissions restrictions
system.cpu.istage2_mmu.stage2_tlb.read_accesses            0                       # DTB read accesses
system.cpu.istage2_mmu.stage2_tlb.write_accesses            0                       # DTB write accesses
system.cpu.istage2_mmu.stage2_tlb.inst_accesses            0                       # ITB inst accesses
system.cpu.istage2_mmu.stage2_tlb.hits              0                       # DTB hits
system.cpu.istage2_mmu.stage2_tlb.misses            0                       # DTB misses
system.cpu.istage2_mmu.stage2_tlb.accesses            0                       # DTB accesses
system.cpu.itb.walker.pwrStateResidencyTicks::UNDEFINED 150118733500                       # Cumulative time (in ticks) in various power states
system.cpu.itb.walker.walks                         0                       # Table walker walks requested
system.cpu.itb.walker.walkRequestOrigin_Requested::Data            0                       # Table walker requests started/completed, data/inst
system.cpu.itb.walker.walkRequestOrigin_Requested::Inst            0                       # Table walker requests started/completed, data/inst
system.cpu.itb.walker.walkRequestOrigin_Requested::total            0                       # Table walker requests started/completed, data/inst
system.cpu.itb.walker.walkRequestOrigin_Completed::Data            0                       # Table walker requests started/completed, data/inst
system.cpu.itb.walker.walkRequestOrigin_Completed::Inst            0                       # Table walker requests started/completed, data/inst
system.cpu.itb.walker.walkRequestOrigin_Completed::total            0                       # Table walker requests started/completed, data/inst
system.cpu.itb.walker.walkRequestOrigin::total            0                       # Table walker requests started/completed, data/inst
system.cpu.itb.inst_hits                            0                       # ITB inst hits
system.cpu.itb.inst_misses                          0                       # ITB inst misses
system.cpu.itb.read_hits                            0                       # DTB read hits
system.cpu.itb.read_misses                          0                       # DTB read misses
system.cpu.itb.write_hits                           0                       # DTB write hits
system.cpu.itb.write_misses                         0                       # DTB write misses
system.cpu.itb.flush_tlb                            0                       # Number of times complete TLB was flushed
system.cpu.itb.flush_tlb_mva                        0                       # Number of times TLB was flushed by MVA
system.cpu.itb.flush_tlb_mva_asid                   0                       # Number of times TLB was flushed by MVA & ASID
system.cpu.itb.flush_tlb_asid                       0                       # Number of times TLB was flushed by ASID
system.cpu.itb.flush_entries                        0                       # Number of entries that have been flushed from TLB
system.cpu.itb.align_faults                         0                       # Number of TLB faults due to alignment restrictions
system.cpu.itb.prefetch_faults                      0                       # Number of TLB faults due to prefetch
system.cpu.itb.domain_faults                        0                       # Number of TLB faults due to domain restrictions
system.cpu.itb.perms_faults                         0                       # Number of TLB faults due to permissions restrictions
system.cpu.itb.read_accesses                        0                       # DTB read accesses
system.cpu.itb.write_accesses                       0                       # DTB write accesses
system.cpu.itb.inst_accesses                        0                       # ITB inst accesses
system.cpu.itb.hits                                 0                       # DTB hits
system.cpu.itb.misses                               0                       # DTB misses
system.cpu.itb.accesses                             0                       # DTB accesses
system.cpu.workload.numSyscalls                   239                       # Number of system calls
system.cpu.pwrStateResidencyTicks::ON    150118733500                       # Cumulative time (in ticks) in various power states
system.cpu.numCycles                        300237467                       # number of cpu cycles simulated
system.cpu.numWorkItemsStarted                      0                       # number of work items this cpu started
system.cpu.numWorkItemsCompleted                    0                       # number of work items this cpu completed
system.cpu.committedInsts                    43681715                       # Number of instructions committed
system.cpu.committedOps                      46438296                       # Number of ops (including micro ops) committed
system.cpu.num_int_alu_accesses              36550911                       # Number of integer alu accesses
system.cpu.num_fp_alu_accesses                     16                       # Number of float alu accesses
system.cpu.num_vec_alu_accesses                     0                       # Number of vector alu accesses
system.cpu.num_func_calls                      479840                       # number of times a function call or return occured
system.cpu.num_conditional_control_insts      9756862                       # number of instructions that are conditional controls
system.cpu.num_int_insts                     36550911                       # number of integer instructions
system.cpu.num_fp_insts                            16                       # number of float instructions
system.cpu.num_vec_insts                            0                       # number of vector instructions
system.cpu.num_int_register_reads            62405331                       # number of times the integer registers were read
system.cpu.num_int_register_writes           21331325                       # number of times the integer registers were written
system.cpu.num_fp_register_reads                   16                       # number of times the floating registers were read
system.cpu.num_fp_register_writes                   0                       # number of times the floating registers were written
system.cpu.num_vec_register_reads                   0                       # number of times the vector registers were read
system.cpu.num_vec_register_writes                  0                       # number of times the vector registers were written
system.cpu.num_cc_register_reads            167328390                       # number of times the CC registers were read
system.cpu.num_cc_register_writes            30215577                       # number of times the CC registers were written
system.cpu.num_mem_refs                      14199991                       # number of memory refs
system.cpu.num_load_insts                     9180678                       # Number of load instructions
system.cpu.num_store_insts                    5019313                       # Number of store instructions
system.cpu.num_idle_cycles                          0                       # Number of idle cycles
system.cpu.num_busy_cycles                  300237467                       # Number of busy cycles
system.cpu.not_idle_fraction                        1                       # Percentage of non-idle cycles
system.cpu.idle_fraction                            0                       # Percentage of idle cycles
system.cpu.Branches                          10612419                       # Number of branches fetched
system.cpu.op_class::No_OpClass                     0      0.00%      0.00% # Class of executed instruction
system.cpu.op_class::IntAlu                  32367987     69.48%     69.48% # Class of executed instruction
system.cpu.op_class::IntMult                    19468      0.04%     69.52% # Class of executed instruction
system.cpu.op_class::IntDiv                         0      0.00%     69.52% # Class of executed instruction
system.cpu.op_class::FloatAdd                       0      0.00%     69.52% # Class of executed instruction
system.cpu.op_class::FloatCmp                       0      0.00%     69.52% # Class of executed instruction
system.cpu.op_class::FloatCvt                       0      0.00%     69.52% # Class of executed instruction
system.cpu.op_class::FloatMult                      0      0.00%     69.52% # Class of executed instruction
system.cpu.op_class::FloatMultAcc                   0      0.00%     69.52% # Class of executed instruction
system.cpu.op_class::FloatDiv                       0      0.00%     69.52% # Class of executed instruction
system.cpu.op_class::FloatMisc                      0      0.00%     69.52% # Class of executed instruction
system.cpu.op_class::FloatSqrt                      0      0.00%     69.52% # Class of executed instruction
system.cpu.op_class::SimdAdd                        0      0.00%     69.52% # Class of executed instruction
system.cpu.op_class::SimdAddAcc                     0      0.00%     69.52% # Class of executed instruction
system.cpu.op_class::SimdAlu                        0      0.00%     69.52% # Class of executed instruction
system.cpu.op_class::SimdCmp                        0      0.00%     69.52% # Class of executed instruction
system.cpu.op_class::SimdCvt                        0      0.00%     69.52% # Class of executed instruction
system.cpu.op_class::SimdMisc                       0      0.00%     69.52% # Class of executed instruction
system.cpu.op_class::SimdMult                       0      0.00%     69.52% # Class of executed instruction
system.cpu.op_class::SimdMultAcc                    0      0.00%     69.52% # Class of executed instruction
system.cpu.op_class::SimdShift                      0      0.00%     69.52% # Class of executed instruction
system.cpu.op_class::SimdShiftAcc                   0      0.00%     69.52% # Class of executed instruction
system.cpu.op_class::SimdSqrt                       0      0.00%     69.52% # Class of executed instruction
system.cpu.op_class::SimdFloatAdd                   0      0.00%     69.52% # Class of executed instruction
system.cpu.op_class::SimdFloatAlu                   0      0.00%     69.52% # Class of executed instruction
system.cpu.op_class::SimdFloatCmp                   0      0.00%     69.52% # Class of executed instruction
system.cpu.op_class::SimdFloatCvt                   0      0.00%     69.52% # Class of executed instruction
system.cpu.op_class::SimdFloatDiv                   0      0.00%     69.52% # Class of executed instruction
system.cpu.op_class::SimdFloatMisc                  0      0.00%     69.52% # Class of executed instruction
system.cpu.op_class::SimdFloatMult                  0      0.00%     69.52% # Class of executed instruction
system.cpu.op_class::SimdFloatMultAcc               0      0.00%     69.52% # Class of executed instruction
system.cpu.op_class::SimdFloatSqrt                  0      0.00%     69.52% # Class of executed instruction
system.cpu.op_class::MemRead                  9180678     19.71%     89.23% # Class of executed instruction
system.cpu.op_class::MemWrite                 5019297     10.77%    100.00% # Class of executed instruction
system.cpu.op_class::FloatMemRead                   0      0.00%    100.00% # Class of executed instruction
system.cpu.op_class::FloatMemWrite                 16      0.00%    100.00% # Class of executed instruction
system.cpu.op_class::IprAccess                      0      0.00%    100.00% # Class of executed instruction
system.cpu.op_class::InstPrefetch                   0      0.00%    100.00% # Class of executed instruction
system.cpu.op_class::total                   46587446                       # Class of executed instruction
system.cpu.dcache.tags.pwrStateResidencyTicks::UNDEFINED 150118733500                       # Cumulative time (in ticks) in various power states
system.cpu.dcache.tags.replacements           3550199                       # number of replacements
system.cpu.dcache.tags.tagsinuse            63.997579                       # Cycle average of tags in use
system.cpu.dcache.tags.total_refs            10612653                       # Total number of references to valid blocks.
system.cpu.dcache.tags.sampled_refs           3550263                       # Sample count of references to valid blocks.
system.cpu.dcache.tags.avg_refs              2.989258                       # Average number of references to valid blocks.
system.cpu.dcache.tags.warmup_cycle          16882500                       # Cycle when the warmup percentage was hit.
system.cpu.dcache.tags.occ_blocks::cpu.data    63.997579                       # Average occupied blocks per requestor
system.cpu.dcache.tags.occ_percent::cpu.data     0.999962                       # Average percentage of cache occupancy
system.cpu.dcache.tags.occ_percent::total     0.999962                       # Average percentage of cache occupancy
system.cpu.dcache.tags.occ_task_id_blocks::1024           64                       # Occupied blocks per task id
system.cpu.dcache.tags.age_task_id_blocks_1024::0           27                       # Occupied blocks per task id
system.cpu.dcache.tags.age_task_id_blocks_1024::1           37                       # Occupied blocks per task id
system.cpu.dcache.tags.occ_task_id_percent::1024            1                       # Percentage of cache occupancy per task id
system.cpu.dcache.tags.tag_accesses         116853591                       # Number of tag accesses
system.cpu.dcache.tags.data_accesses        116853591                       # Number of data accesses
system.cpu.dcache.pwrStateResidencyTicks::UNDEFINED 150118733500                       # Cumulative time (in ticks) in various power states
system.cpu.dcache.ReadReq_hits::cpu.data      5753484                       # number of ReadReq hits
system.cpu.dcache.ReadReq_hits::total         5753484                       # number of ReadReq hits
system.cpu.dcache.WriteReq_hits::cpu.data      4668709                       # number of WriteReq hits
system.cpu.dcache.WriteReq_hits::total        4668709                       # number of WriteReq hits
system.cpu.dcache.LoadLockedReq_hits::cpu.data        95230                       # number of LoadLockedReq hits
system.cpu.dcache.LoadLockedReq_hits::total        95230                       # number of LoadLockedReq hits
system.cpu.dcache.StoreCondReq_hits::cpu.data        95230                       # number of StoreCondReq hits
system.cpu.dcache.StoreCondReq_hits::total        95230                       # number of StoreCondReq hits
system.cpu.dcache.demand_hits::cpu.data      10422193                       # number of demand (read+write) hits
system.cpu.dcache.demand_hits::total         10422193                       # number of demand (read+write) hits
system.cpu.dcache.overall_hits::cpu.data     10422193                       # number of overall hits
system.cpu.dcache.overall_hits::total        10422193                       # number of overall hits
system.cpu.dcache.ReadReq_misses::cpu.data      3356576                       # number of ReadReq misses
system.cpu.dcache.ReadReq_misses::total       3356576                       # number of ReadReq misses
system.cpu.dcache.WriteReq_misses::cpu.data       193687                       # number of WriteReq misses
system.cpu.dcache.WriteReq_misses::total       193687                       # number of WriteReq misses
system.cpu.dcache.demand_misses::cpu.data      3550263                       # number of demand (read+write) misses
system.cpu.dcache.demand_misses::total        3550263                       # number of demand (read+write) misses
system.cpu.dcache.overall_misses::cpu.data      3550263                       # number of overall misses
system.cpu.dcache.overall_misses::total       3550263                       # number of overall misses
system.cpu.dcache.ReadReq_miss_latency::cpu.data  68208877000                       # number of ReadReq miss cycles
system.cpu.dcache.ReadReq_miss_latency::total  68208877000                       # number of ReadReq miss cycles
system.cpu.dcache.WriteReq_miss_latency::cpu.data   3272443500                       # number of WriteReq miss cycles
system.cpu.dcache.WriteReq_miss_latency::total   3272443500                       # number of WriteReq miss cycles
system.cpu.dcache.demand_miss_latency::cpu.data  71481320500                       # number of demand (read+write) miss cycles
system.cpu.dcache.demand_miss_latency::total  71481320500                       # number of demand (read+write) miss cycles
system.cpu.dcache.overall_miss_latency::cpu.data  71481320500                       # number of overall miss cycles
system.cpu.dcache.overall_miss_latency::total  71481320500                       # number of overall miss cycles
system.cpu.dcache.ReadReq_accesses::cpu.data      9110060                       # number of ReadReq accesses(hits+misses)
system.cpu.dcache.ReadReq_accesses::total      9110060                       # number of ReadReq accesses(hits+misses)
system.cpu.dcache.WriteReq_accesses::cpu.data      4862396                       # number of WriteReq accesses(hits+misses)
system.cpu.dcache.WriteReq_accesses::total      4862396                       # number of WriteReq accesses(hits+misses)
system.cpu.dcache.LoadLockedReq_accesses::cpu.data        95230                       # number of LoadLockedReq accesses(hits+misses)
system.cpu.dcache.LoadLockedReq_accesses::total        95230                       # number of LoadLockedReq accesses(hits+misses)
system.cpu.dcache.StoreCondReq_accesses::cpu.data        95230                       # number of StoreCondReq accesses(hits+misses)
system.cpu.dcache.StoreCondReq_accesses::total        95230                       # number of StoreCondReq accesses(hits+misses)
system.cpu.dcache.demand_accesses::cpu.data     13972456                       # number of demand (read+write) accesses
system.cpu.dcache.demand_accesses::total     13972456                       # number of demand (read+write) accesses
system.cpu.dcache.overall_accesses::cpu.data     13972456                       # number of overall (read+write) accesses
system.cpu.dcache.overall_accesses::total     13972456                       # number of overall (read+write) accesses
system.cpu.dcache.ReadReq_miss_rate::cpu.data     0.368447                       # miss rate for ReadReq accesses
system.cpu.dcache.ReadReq_miss_rate::total     0.368447                       # miss rate for ReadReq accesses
system.cpu.dcache.WriteReq_miss_rate::cpu.data     0.039834                       # miss rate for WriteReq accesses
system.cpu.dcache.WriteReq_miss_rate::total     0.039834                       # miss rate for WriteReq accesses
system.cpu.dcache.demand_miss_rate::cpu.data     0.254090                       # miss rate for demand accesses
system.cpu.dcache.demand_miss_rate::total     0.254090                       # miss rate for demand accesses
system.cpu.dcache.overall_miss_rate::cpu.data     0.254090                       # miss rate for overall accesses
system.cpu.dcache.overall_miss_rate::total     0.254090                       # miss rate for overall accesses
system.cpu.dcache.ReadReq_avg_miss_latency::cpu.data 20320.969047                       # average ReadReq miss latency
system.cpu.dcache.ReadReq_avg_miss_latency::total 20320.969047                       # average ReadReq miss latency
system.cpu.dcache.WriteReq_avg_miss_latency::cpu.data 16895.524738                       # average WriteReq miss latency
system.cpu.dcache.WriteReq_avg_miss_latency::total 16895.524738                       # average WriteReq miss latency
system.cpu.dcache.demand_avg_miss_latency::cpu.data 20134.091615                       # average overall miss latency
system.cpu.dcache.demand_avg_miss_latency::total 20134.091615                       # average overall miss latency
system.cpu.dcache.overall_avg_miss_latency::cpu.data 20134.091615                       # average overall miss latency
system.cpu.dcache.overall_avg_miss_latency::total 20134.091615                       # average overall miss latency
system.cpu.dcache.blocked_cycles::no_mshrs            0                       # number of cycles access was blocked
system.cpu.dcache.blocked_cycles::no_targets            0                       # number of cycles access was blocked
system.cpu.dcache.blocked::no_mshrs                 0                       # number of cycles access was blocked
system.cpu.dcache.blocked::no_targets               0                       # number of cycles access was blocked
system.cpu.dcache.avg_blocked_cycles::no_mshrs          nan                       # average number of cycles each access was blocked
system.cpu.dcache.avg_blocked_cycles::no_targets          nan                       # average number of cycles each access was blocked
system.cpu.dcache.writebacks::writebacks      2646260                       # number of writebacks
system.cpu.dcache.writebacks::total           2646260                       # number of writebacks
system.cpu.dcache.ReadReq_mshr_misses::cpu.data      3356576                       # number of ReadReq MSHR misses
system.cpu.dcache.ReadReq_mshr_misses::total      3356576                       # number of ReadReq MSHR misses
system.cpu.dcache.WriteReq_mshr_misses::cpu.data       193687                       # number of WriteReq MSHR misses
system.cpu.dcache.WriteReq_mshr_misses::total       193687                       # number of WriteReq MSHR misses
system.cpu.dcache.demand_mshr_misses::cpu.data      3550263                       # number of demand (read+write) MSHR misses
system.cpu.dcache.demand_mshr_misses::total      3550263                       # number of demand (read+write) MSHR misses
system.cpu.dcache.overall_mshr_misses::cpu.data      3550263                       # number of overall MSHR misses
system.cpu.dcache.overall_mshr_misses::total      3550263                       # number of overall MSHR misses
system.cpu.dcache.ReadReq_mshr_miss_latency::cpu.data  64852301000                       # number of ReadReq MSHR miss cycles
system.cpu.dcache.ReadReq_mshr_miss_latency::total  64852301000                       # number of ReadReq MSHR miss cycles
system.cpu.dcache.WriteReq_mshr_miss_latency::cpu.data   3078756500                       # number of WriteReq MSHR miss cycles
system.cpu.dcache.WriteReq_mshr_miss_latency::total   3078756500                       # number of WriteReq MSHR miss cycles
system.cpu.dcache.demand_mshr_miss_latency::cpu.data  67931057500                       # number of demand (read+write) MSHR miss cycles
system.cpu.dcache.demand_mshr_miss_latency::total  67931057500                       # number of demand (read+write) MSHR miss cycles
system.cpu.dcache.overall_mshr_miss_latency::cpu.data  67931057500                       # number of overall MSHR miss cycles
system.cpu.dcache.overall_mshr_miss_latency::total  67931057500                       # number of overall MSHR miss cycles
system.cpu.dcache.ReadReq_mshr_miss_rate::cpu.data     0.368447                       # mshr miss rate for ReadReq accesses
system.cpu.dcache.ReadReq_mshr_miss_rate::total     0.368447                       # mshr miss rate for ReadReq accesses
system.cpu.dcache.WriteReq_mshr_miss_rate::cpu.data     0.039834                       # mshr miss rate for WriteReq accesses
system.cpu.dcache.WriteReq_mshr_miss_rate::total     0.039834                       # mshr miss rate for WriteReq accesses
system.cpu.dcache.demand_mshr_miss_rate::cpu.data     0.254090                       # mshr miss rate for demand accesses
system.cpu.dcache.demand_mshr_miss_rate::total     0.254090                       # mshr miss rate for demand accesses
system.cpu.dcache.overall_mshr_miss_rate::cpu.data     0.254090                       # mshr miss rate for overall accesses
system.cpu.dcache.overall_mshr_miss_rate::total     0.254090                       # mshr miss rate for overall accesses
system.cpu.dcache.ReadReq_avg_mshr_miss_latency::cpu.data 19320.969047                       # average ReadReq mshr miss latency
system.cpu.dcache.ReadReq_avg_mshr_miss_latency::total 19320.969047                       # average ReadReq mshr miss latency
system.cpu.dcache.WriteReq_avg_mshr_miss_latency::cpu.data 15895.524738                       # average WriteReq mshr miss latency
system.cpu.dcache.WriteReq_avg_mshr_miss_latency::total 15895.524738                       # average WriteReq mshr miss latency
system.cpu.dcache.demand_avg_mshr_miss_latency::cpu.data 19134.091615                       # average overall mshr miss latency
system.cpu.dcache.demand_avg_mshr_miss_latency::total 19134.091615                       # average overall mshr miss latency
system.cpu.dcache.overall_avg_mshr_miss_latency::cpu.data 19134.091615                       # average overall mshr miss latency
system.cpu.dcache.overall_avg_mshr_miss_latency::total 19134.091615                       # average overall mshr miss latency
system.cpu.icache.tags.pwrStateResidencyTicks::UNDEFINED 150118733500                       # Cumulative time (in ticks) in various power states
system.cpu.icache.tags.replacements           1978142                       # number of replacements
system.cpu.icache.tags.tagsinuse           127.981702                       # Cycle average of tags in use
system.cpu.icache.tags.total_refs            41835747                       # Total number of references to valid blocks.
system.cpu.icache.tags.sampled_refs           1978270                       # Sample count of references to valid blocks.
system.cpu.icache.tags.avg_refs             21.147643                       # Average number of references to valid blocks.
system.cpu.icache.tags.warmup_cycle          96004500                       # Cycle when the warmup percentage was hit.
system.cpu.icache.tags.occ_blocks::cpu.inst   127.981702                       # Average occupied blocks per requestor
system.cpu.icache.tags.occ_percent::cpu.inst     0.999857                       # Average percentage of cache occupancy
system.cpu.icache.tags.occ_percent::total     0.999857                       # Average percentage of cache occupancy
system.cpu.icache.tags.occ_task_id_blocks::1024          128                       # Occupied blocks per task id
system.cpu.icache.tags.age_task_id_blocks_1024::0           57                       # Occupied blocks per task id
system.cpu.icache.tags.age_task_id_blocks_1024::1           59                       # Occupied blocks per task id
system.cpu.icache.tags.age_task_id_blocks_1024::3            1                       # Occupied blocks per task id
system.cpu.icache.tags.age_task_id_blocks_1024::4           11                       # Occupied blocks per task id
system.cpu.icache.tags.occ_task_id_percent::1024            1                       # Percentage of cache occupancy per task id
system.cpu.icache.tags.tag_accesses          45792287                       # Number of tag accesses
system.cpu.icache.tags.data_accesses         45792287                       # Number of data accesses
system.cpu.icache.pwrStateResidencyTicks::UNDEFINED 150118733500                       # Cumulative time (in ticks) in various power states
system.cpu.icache.ReadReq_hits::cpu.inst     41835747                       # number of ReadReq hits
system.cpu.icache.ReadReq_hits::total        41835747                       # number of ReadReq hits
system.cpu.icache.demand_hits::cpu.inst      41835747                       # number of demand (read+write) hits
system.cpu.icache.demand_hits::total         41835747                       # number of demand (read+write) hits
system.cpu.icache.overall_hits::cpu.inst     41835747                       # number of overall hits
system.cpu.icache.overall_hits::total        41835747                       # number of overall hits
system.cpu.icache.ReadReq_misses::cpu.inst      1978270                       # number of ReadReq misses
system.cpu.icache.ReadReq_misses::total       1978270                       # number of ReadReq misses
system.cpu.icache.demand_misses::cpu.inst      1978270                       # number of demand (read+write) misses
system.cpu.icache.demand_misses::total        1978270                       # number of demand (read+write) misses
system.cpu.icache.overall_misses::cpu.inst      1978270                       # number of overall misses
system.cpu.icache.overall_misses::total       1978270                       # number of overall misses
system.cpu.icache.ReadReq_miss_latency::cpu.inst  26251665000                       # number of ReadReq miss cycles
system.cpu.icache.ReadReq_miss_latency::total  26251665000                       # number of ReadReq miss cycles
system.cpu.icache.demand_miss_latency::cpu.inst  26251665000                       # number of demand (read+write) miss cycles
system.cpu.icache.demand_miss_latency::total  26251665000                       # number of demand (read+write) miss cycles
system.cpu.icache.overall_miss_latency::cpu.inst  26251665000                       # number of overall miss cycles
system.cpu.icache.overall_miss_latency::total  26251665000                       # number of overall miss cycles
system.cpu.icache.ReadReq_accesses::cpu.inst     43814017                       # number of ReadReq accesses(hits+misses)
system.cpu.icache.ReadReq_accesses::total     43814017                       # number of ReadReq accesses(hits+misses)
system.cpu.icache.demand_accesses::cpu.inst     43814017                       # number of demand (read+write) accesses
system.cpu.icache.demand_accesses::total     43814017                       # number of demand (read+write) accesses
system.cpu.icache.overall_accesses::cpu.inst     43814017                       # number of overall (read+write) accesses
system.cpu.icache.overall_accesses::total     43814017                       # number of overall (read+write) accesses
system.cpu.icache.ReadReq_miss_rate::cpu.inst     0.045152                       # miss rate for ReadReq accesses
system.cpu.icache.ReadReq_miss_rate::total     0.045152                       # miss rate for ReadReq accesses
system.cpu.icache.demand_miss_rate::cpu.inst     0.045152                       # miss rate for demand accesses
system.cpu.icache.demand_miss_rate::total     0.045152                       # miss rate for demand accesses
system.cpu.icache.overall_miss_rate::cpu.inst     0.045152                       # miss rate for overall accesses
system.cpu.icache.overall_miss_rate::total     0.045152                       # miss rate for overall accesses
system.cpu.icache.ReadReq_avg_miss_latency::cpu.inst 13270.011171                       # average ReadReq miss latency
system.cpu.icache.ReadReq_avg_miss_latency::total 13270.011171                       # average ReadReq miss latency
system.cpu.icache.demand_avg_miss_latency::cpu.inst 13270.011171                       # average overall miss latency
system.cpu.icache.demand_avg_miss_latency::total 13270.011171                       # average overall miss latency
system.cpu.icache.overall_avg_miss_latency::cpu.inst 13270.011171                       # average overall miss latency
system.cpu.icache.overall_avg_miss_latency::total 13270.011171                       # average overall miss latency
system.cpu.icache.blocked_cycles::no_mshrs            0                       # number of cycles access was blocked
system.cpu.icache.blocked_cycles::no_targets            0                       # number of cycles access was blocked
system.cpu.icache.blocked::no_mshrs                 0                       # number of cycles access was blocked
system.cpu.icache.blocked::no_targets               0                       # number of cycles access was blocked
system.cpu.icache.avg_blocked_cycles::no_mshrs          nan                       # average number of cycles each access was blocked
system.cpu.icache.avg_blocked_cycles::no_targets          nan                       # average number of cycles each access was blocked
system.cpu.icache.writebacks::writebacks      1978142                       # number of writebacks
system.cpu.icache.writebacks::total           1978142                       # number of writebacks
system.cpu.icache.ReadReq_mshr_misses::cpu.inst      1978270                       # number of ReadReq MSHR misses
system.cpu.icache.ReadReq_mshr_misses::total      1978270                       # number of ReadReq MSHR misses
system.cpu.icache.demand_mshr_misses::cpu.inst      1978270                       # number of demand (read+write) MSHR misses
system.cpu.icache.demand_mshr_misses::total      1978270                       # number of demand (read+write) MSHR misses
system.cpu.icache.overall_mshr_misses::cpu.inst      1978270                       # number of overall MSHR misses
system.cpu.icache.overall_mshr_misses::total      1978270                       # number of overall MSHR misses
system.cpu.icache.ReadReq_mshr_miss_latency::cpu.inst  24273395000                       # number of ReadReq MSHR miss cycles
system.cpu.icache.ReadReq_mshr_miss_latency::total  24273395000                       # number of ReadReq MSHR miss cycles
system.cpu.icache.demand_mshr_miss_latency::cpu.inst  24273395000                       # number of demand (read+write) MSHR miss cycles
system.cpu.icache.demand_mshr_miss_latency::total  24273395000                       # number of demand (read+write) MSHR miss cycles
system.cpu.icache.overall_mshr_miss_latency::cpu.inst  24273395000                       # number of overall MSHR miss cycles
system.cpu.icache.overall_mshr_miss_latency::total  24273395000                       # number of overall MSHR miss cycles
system.cpu.icache.ReadReq_mshr_miss_rate::cpu.inst     0.045152                       # mshr miss rate for ReadReq accesses
[...]
system.l2.ReadExReq_accesses::total            193687                       # number of ReadExReq accesses(hits+misses)
system.l2.ReadCleanReq_accesses::cpu.inst      1978270                       # number of ReadCleanReq accesses(hits+misses)
system.l2.ReadCleanReq_accesses::total        1978270                       # number of ReadCleanReq accesses(hits+misses)
system.l2.ReadSharedReq_accesses::cpu.data      3356576                       # number of ReadSharedReq accesses(hits+misses)
system.l2.ReadSharedReq_accesses::total       3356576                       # number of ReadSharedReq accesses(hits+misses)
system.l2.demand_accesses::cpu.inst           1978270                       # number of demand (read+write) accesses
system.l2.demand_accesses::cpu.data           3550263                       # number of demand (read+write) accesses
system.l2.demand_accesses::total              5528533                       # number of demand (read+write) accesses
system.l2.overall_accesses::cpu.inst          1978270                       # number of overall (read+write) accesses
system.l2.overall_accesses::cpu.data          3550263                       # number of overall (read+write) accesses
system.l2.overall_accesses::total             5528533                       # number of overall (read+write) accesses
system.l2.ReadExReq_miss_rate::cpu.data      0.031004                       # miss rate for ReadExReq accesses
system.l2.ReadExReq_miss_rate::total         0.031004                       # miss rate for ReadExReq accesses
system.l2.ReadCleanReq_miss_rate::cpu.inst     0.003669                       # miss rate for ReadCleanReq accesses
system.l2.ReadCleanReq_miss_rate::total      0.003669                       # miss rate for ReadCleanReq accesses
system.l2.ReadSharedReq_miss_rate::cpu.data     0.096093                       # miss rate for ReadSharedReq accesses
system.l2.ReadSharedReq_miss_rate::total     0.096093                       # miss rate for ReadSharedReq accesses
system.l2.demand_miss_rate::cpu.inst         0.003669                       # miss rate for demand accesses
system.l2.demand_miss_rate::cpu.data         0.092542                       # miss rate for demand accesses
system.l2.demand_miss_rate::total            0.060741                       # miss rate for demand accesses
system.l2.overall_miss_rate::cpu.inst        0.003669                       # miss rate for overall accesses
system.l2.overall_miss_rate::cpu.data        0.092542                       # miss rate for overall accesses
system.l2.overall_miss_rate::total           0.060741                       # miss rate for overall accesses
system.l2.ReadExReq_avg_miss_latency::cpu.data 136147.377186                       # average ReadExReq miss latency
system.l2.ReadExReq_avg_miss_latency::total 136147.377186                       # average ReadExReq miss latency
system.l2.ReadCleanReq_avg_miss_latency::cpu.inst 82646.576663                       # average ReadCleanReq miss latency
system.l2.ReadCleanReq_avg_miss_latency::total 82646.576663                       # average ReadCleanReq miss latency
system.l2.ReadSharedReq_avg_miss_latency::cpu.data 86685.602584                       # average ReadSharedReq miss latency
system.l2.ReadSharedReq_avg_miss_latency::total 86685.602584                       # average ReadSharedReq miss latency
system.l2.demand_avg_miss_latency::cpu.inst 82646.576663                       # average overall miss latency
system.l2.demand_avg_miss_latency::cpu.data 87589.631988                       # average overall miss latency
system.l2.demand_avg_miss_latency::total 87482.780339                       # average overall miss latency
system.l2.overall_avg_miss_latency::cpu.inst 82646.576663                       # average overall miss latency
system.l2.overall_avg_miss_latency::cpu.data 87589.631988                       # average overall miss latency
system.l2.overall_avg_miss_latency::total 87482.780339                       # average overall miss latency
system.l2.blocked_cycles::no_mshrs                  0                       # number of cycles access was blocked
system.l2.blocked_cycles::no_targets                0                       # number of cycles access was blocked
system.l2.blocked::no_mshrs                         0                       # number of cycles access was blocked
system.l2.blocked::no_targets                       0                       # number of cycles access was blocked
system.l2.avg_blocked_cycles::no_mshrs            nan                       # average number of cycles each access was blocked
system.l2.avg_blocked_cycles::no_targets          nan                       # average number of cycles each access was blocked
system.l2.writebacks::writebacks                22276                       # number of writebacks
system.l2.writebacks::total                     22276                       # number of writebacks
system.l2.CleanEvict_mshr_misses::writebacks            9                       # number of CleanEvict MSHR misses
system.l2.CleanEvict_mshr_misses::total             9                       # number of CleanEvict MSHR misses
system.l2.ReadExReq_mshr_misses::cpu.data         6005                       # number of ReadExReq MSHR misses
system.l2.ReadExReq_mshr_misses::total           6005                       # number of ReadExReq MSHR misses
system.l2.ReadCleanReq_mshr_misses::cpu.inst         7259                       # number of ReadCleanReq MSHR misses
system.l2.ReadCleanReq_mshr_misses::total         7259                       # number of ReadCleanReq MSHR misses
system.l2.ReadSharedReq_mshr_misses::cpu.data       322544                       # number of ReadSharedReq MSHR misses
system.l2.ReadSharedReq_mshr_misses::total       322544                       # number of ReadSharedReq MSHR misses
system.l2.demand_mshr_misses::cpu.inst           7259                       # number of demand (read+write) MSHR misses
system.l2.demand_mshr_misses::cpu.data         328549                       # number of demand (read+write) MSHR misses
system.l2.demand_mshr_misses::total            335808                       # number of demand (read+write) MSHR misses
system.l2.overall_mshr_misses::cpu.inst          7259                       # number of overall MSHR misses
system.l2.overall_mshr_misses::cpu.data        328549                       # number of overall MSHR misses
system.l2.overall_mshr_misses::total           335808                       # number of overall MSHR misses
system.l2.ReadExReq_mshr_miss_latency::cpu.data    757515000                       # number of ReadExReq MSHR miss cycles
system.l2.ReadExReq_mshr_miss_latency::total    757515000                       # number of ReadExReq MSHR miss cycles
system.l2.ReadCleanReq_mshr_miss_latency::cpu.inst    527341500                       # number of ReadCleanReq MSHR miss cycles
system.l2.ReadCleanReq_mshr_miss_latency::total    527341500                       # number of ReadCleanReq MSHR miss cycles
system.l2.ReadSharedReq_mshr_miss_latency::cpu.data  24734481000                       # number of ReadSharedReq MSHR miss cycles
system.l2.ReadSharedReq_mshr_miss_latency::total  24734481000                       # number of ReadSharedReq MSHR miss cycles
system.l2.demand_mshr_miss_latency::cpu.inst    527341500                       # number of demand (read+write) MSHR miss cycles
system.l2.demand_mshr_miss_latency::cpu.data  25491996000                       # number of demand (read+write) MSHR miss cycles
system.l2.demand_mshr_miss_latency::total  26019337500                       # number of demand (read+write) MSHR miss cycles
system.l2.overall_mshr_miss_latency::cpu.inst    527341500                       # number of overall MSHR miss cycles
system.l2.overall_mshr_miss_latency::cpu.data  25491996000                       # number of overall MSHR miss cycles
system.l2.overall_mshr_miss_latency::total  26019337500                       # number of overall MSHR miss cycles
system.l2.CleanEvict_mshr_miss_rate::writebacks          inf                       # mshr miss rate for CleanEvict accesses
system.l2.CleanEvict_mshr_miss_rate::total          inf                       # mshr miss rate for CleanEvict accesses
system.l2.ReadExReq_mshr_miss_rate::cpu.data     0.031004                       # mshr miss rate for ReadExReq accesses
system.l2.ReadExReq_mshr_miss_rate::total     0.031004                       # mshr miss rate for ReadExReq accesses
system.l2.ReadCleanReq_mshr_miss_rate::cpu.inst     0.003669                       # mshr miss rate for ReadCleanReq accesses
system.l2.ReadCleanReq_mshr_miss_rate::total     0.003669                       # mshr miss rate for ReadCleanReq accesses
system.l2.ReadSharedReq_mshr_miss_rate::cpu.data     0.096093                       # mshr miss rate for ReadSharedReq accesses
system.l2.ReadSharedReq_mshr_miss_rate::total     0.096093                       # mshr miss rate for ReadSharedReq accesses
system.l2.demand_mshr_miss_rate::cpu.inst     0.003669                       # mshr miss rate for demand accesses
system.l2.demand_mshr_miss_rate::cpu.data     0.092542                       # mshr miss rate for demand accesses
system.l2.demand_mshr_miss_rate::total       0.060741                       # mshr miss rate for demand accesses
system.l2.overall_mshr_miss_rate::cpu.inst     0.003669                       # mshr miss rate for overall accesses
system.l2.overall_mshr_miss_rate::cpu.data     0.092542                       # mshr miss rate for overall accesses
system.l2.overall_mshr_miss_rate::total      0.060741                       # mshr miss rate for overall accesses
system.l2.ReadExReq_avg_mshr_miss_latency::cpu.data 126147.377186                       # average ReadExReq mshr miss latency
system.l2.ReadExReq_avg_mshr_miss_latency::total 126147.377186                       # average ReadExReq mshr miss latency
system.l2.ReadCleanReq_avg_mshr_miss_latency::cpu.inst 72646.576663                       # average ReadCleanReq mshr miss latency
system.l2.ReadCleanReq_avg_mshr_miss_latency::total 72646.576663                       # average ReadCleanReq mshr miss latency
system.l2.ReadSharedReq_avg_mshr_miss_latency::cpu.data 76685.602584                       # average ReadSharedReq mshr miss latency
system.l2.ReadSharedReq_avg_mshr_miss_latency::total 76685.602584                       # average ReadSharedReq mshr miss latency
system.l2.demand_avg_mshr_miss_latency::cpu.inst 72646.576663                       # average overall mshr miss latency
system.l2.demand_avg_mshr_miss_latency::cpu.data 77589.631988                       # average overall mshr miss latency
system.l2.demand_avg_mshr_miss_latency::total 77482.780339                       # average overall mshr miss latency
system.l2.overall_avg_mshr_miss_latency::cpu.inst 72646.576663                       # average overall mshr miss latency
system.l2.overall_avg_mshr_miss_latency::cpu.data 77589.631988                       # average overall mshr miss latency
system.l2.overall_avg_mshr_miss_latency::total 77482.780339                       # average overall mshr miss latency
system.membus.snoop_filter.tot_requests        670580                       # Total number of requests made to the snoop filter.
system.membus.snoop_filter.hit_single_requests       334772                       # Number of requests hitting in the snoop filter with a single holder of the requested data.
system.membus.snoop_filter.hit_multi_requests            0                       # Number of requests hitting in the snoop filter with multiple (>1) holders of the requested data.
system.membus.snoop_filter.tot_snoops               0                       # Total number of snoops made to the snoop filter.
system.membus.snoop_filter.hit_single_snoops            0                       # Number of snoops hitting in the snoop filter with a single holder of the requested data.
system.membus.snoop_filter.hit_multi_snoops            0                       # Number of snoops hitting in the snoop filter with multiple (>1) holders of the requested data.
system.membus.pwrStateResidencyTicks::UNDEFINED 150118733500                       # Cumulative time (in ticks) in various power states
system.membus.trans_dist::ReadResp             329803                       # Transaction distribution
system.membus.trans_dist::WritebackDirty        22276                       # Transaction distribution
system.membus.trans_dist::CleanEvict           312496                       # Transaction distribution
system.membus.trans_dist::ReadExReq              6005                       # Transaction distribution
system.membus.trans_dist::ReadExResp             6005                       # Transaction distribution
system.membus.trans_dist::ReadSharedReq        329803                       # Transaction distribution
system.membus.pkt_count_system.l2.mem_side::system.mem_ctrls.port      1006388                       # Packet count per connected master and slave (bytes)
system.membus.pkt_count::total                1006388                       # Packet count per connected master and slave (bytes)
system.membus.pkt_size_system.l2.mem_side::system.mem_ctrls.port      5729344                       # Cumulative packet size per connected master and slave (bytes)
system.membus.pkt_size::total                 5729344                       # Cumulative packet size per connected master and slave (bytes)
system.membus.snoops                                0                       # Total snoops (count)
system.membus.snoopTraffic                          0                       # Total snoop traffic (bytes)
system.membus.snoop_fanout::samples            335808                       # Request fanout histogram
system.membus.snoop_fanout::mean                    0                       # Request fanout histogram
system.membus.snoop_fanout::stdev                   0                       # Request fanout histogram
system.membus.snoop_fanout::underflows              0      0.00%      0.00% # Request fanout histogram
system.membus.snoop_fanout::0                  335808    100.00%    100.00% # Request fanout histogram
system.membus.snoop_fanout::1                       0      0.00%    100.00% # Request fanout histogram
system.membus.snoop_fanout::overflows               0      0.00%    100.00% # Request fanout histogram
system.membus.snoop_fanout::min_value               0                       # Request fanout histogram
system.membus.snoop_fanout::max_value               0                       # Request fanout histogram
system.membus.snoop_fanout::total              335808                       # Request fanout histogram
system.membus.reqLayer0.occupancy           693943500                       # Layer occupancy (ticks)
system.membus.reqLayer0.utilization               0.5                       # Layer utilization (%)
system.membus.respLayer1.occupancy          765559750                       # Layer occupancy (ticks)
system.membus.respLayer1.utilization              0.5                       # Layer utilization (%)
system.tol2bus.snoop_filter.tot_requests     11056874                       # Total number of requests made to the snoop filter.
system.tol2bus.snoop_filter.hit_single_requests      5528342                       # Number of requests hitting in the snoop filter with a single holder of the requested data.
system.tol2bus.snoop_filter.hit_multi_requests        10565                       # Number of requests hitting in the snoop filter with multiple (>1) holders of the requested data.
system.tol2bus.snoop_filter.tot_snoops           2596                       # Total number of snoops made to the snoop filter.
system.tol2bus.snoop_filter.hit_single_snoops         2596                       # Number of snoops hitting in the snoop filter with a single holder of the requested data.
system.tol2bus.snoop_filter.hit_multi_snoops            0                       # Number of snoops hitting in the snoop filter with multiple (>1) holders of the requested data.
system.tol2bus.pwrStateResidencyTicks::UNDEFINED 150118733500                       # Cumulative time (in ticks) in various power states
system.tol2bus.trans_dist::ReadResp           5334846                       # Transaction distribution
system.tol2bus.trans_dist::WritebackDirty      2668536                       # Transaction distribution
system.tol2bus.trans_dist::WritebackClean      1978142                       # Transaction distribution
system.tol2bus.trans_dist::CleanEvict         1219022                       # Transaction distribution
system.tol2bus.trans_dist::ReadExReq           193687                       # Transaction distribution
system.tol2bus.trans_dist::ReadExResp          193687                       # Transaction distribution
system.tol2bus.trans_dist::ReadCleanReq       1978270                       # Transaction distribution
system.tol2bus.trans_dist::ReadSharedReq      3356576                       # Transaction distribution
system.tol2bus.pkt_count_system.cpu.icache.mem_side::system.l2.cpu_side      5934682                       # Packet count per connected master and slave (bytes)
system.tol2bus.pkt_count_system.cpu.dcache.mem_side::system.l2.cpu_side     10650725                       # Packet count per connected master and slave (bytes)
system.tol2bus.pkt_count::total              16585407                       # Packet count per connected master and slave (bytes)
system.tol2bus.pkt_size_system.cpu.icache.mem_side::system.l2.cpu_side     63302592                       # Cumulative packet size per connected master and slave (bytes)
system.tol2bus.pkt_size_system.cpu.dcache.mem_side::system.l2.cpu_side     99144368                       # Cumulative packet size per connected master and slave (bytes)
system.tol2bus.pkt_size::total              162446960                       # Cumulative packet size per connected master and slave (bytes)
system.tol2bus.snoops                          337359                       # Total snoops (count)
system.tol2bus.snoopTraffic                    356416                       # Total snoop traffic (bytes)
system.tol2bus.snoop_fanout::samples          5865892                       # Request fanout histogram
system.tol2bus.snoop_fanout::mean            0.002244                       # Request fanout histogram
system.tol2bus.snoop_fanout::stdev           0.047316                       # Request fanout histogram
system.tol2bus.snoop_fanout::underflows             0      0.00%      0.00% # Request fanout histogram
system.tol2bus.snoop_fanout::0                5852730     99.78%     99.78% # Request fanout histogram
system.tol2bus.snoop_fanout::1                  13162      0.22%    100.00% # Request fanout histogram
system.tol2bus.snoop_fanout::2                      0      0.00%    100.00% # Request fanout histogram
system.tol2bus.snoop_fanout::overflows              0      0.00%    100.00% # Request fanout histogram
system.tol2bus.snoop_fanout::min_value              0                       # Request fanout histogram
system.tol2bus.snoop_fanout::max_value              1                       # Request fanout histogram
system.tol2bus.snoop_fanout::total            5865892                       # Request fanout histogram
system.tol2bus.reqLayer0.occupancy         7840638000                       # Layer occupancy (ticks)
system.tol2bus.reqLayer0.utilization              5.2                       # Layer utilization (%)
system.tol2bus.respLayer0.occupancy        1978270000                       # Layer occupancy (ticks)
system.tol2bus.respLayer0.utilization             1.3                       # Layer utilization (%)
system.tol2bus.respLayer1.occupancy        3550263000                       # Layer occupancy (ticks)
system.tol2bus.respLayer1.utilization             2.4                       # Layer utilization (%)

---------- End Simulation Statistics   ----------
