
---------- Begin Simulation Statistics ----------
sim_seconds                                  0.151646                       # Number of seconds simulated
sim_ticks                                151646183500                       # Number of ticks simulated
final_tick                               151646183500                       # Number of ticks from beginning of simulation (restored from checkpoints and never reset)
sim_freq                                 1000000000000                       # Frequency of simulated ticks
host_inst_rate                                 943322                       # Simulator instruction rate (inst/s)
host_op_rate                                  1002851                       # Simulator op (including micro ops) rate (op/s)
host_tick_rate                             3274852095                       # Simulator tick rate (ticks/s)
host_mem_usage                                 662464                       # Number of bytes of host memory used
host_seconds                                    46.31                       # Real time elapsed on the host
sim_insts                                    43681715                       # Number of instructions simulated
sim_ops                                      46438296                       # Number of ops (including micro ops) simulated
system.voltage_domain.voltage                       1                       # Voltage in Volts
system.clk_domain.clock                          1000                       # Clock period in ticks
system.mem_ctrls.pwrStateResidencyTicks::UNDEFINED 151646183500                       # Cumulative time (in ticks) in various power states
system.mem_ctrls.bytes_read::cpu.inst          116304                       # Number of bytes read from this memory
system.mem_ctrls.bytes_read::cpu.data         5257040                       # Number of bytes read from this memory
system.mem_ctrls.bytes_read::total            5373344                       # Number of bytes read from this memory
system.mem_ctrls.bytes_inst_read::cpu.inst       116304                       # Number of instructions bytes read from this memory
system.mem_ctrls.bytes_inst_read::total        116304                       # Number of instructions bytes read from this memory
system.mem_ctrls.bytes_written::writebacks       356416                       # Number of bytes written to this memory
system.mem_ctrls.bytes_written::total          356416                       # Number of bytes written to this memory
system.mem_ctrls.num_reads::cpu.inst             7269                       # Number of read requests responded to by this memory
system.mem_ctrls.num_reads::cpu.data           328565                       # Number of read requests responded to by this memory
system.mem_ctrls.num_reads::total              335834                       # Number of read requests responded to by this memory
system.mem_ctrls.num_writes::writebacks         22276                       # Number of write requests responded to by this memory
system.mem_ctrls.num_writes::total              22276                       # Number of write requests responded to by this memory
system.mem_ctrls.bw_read::cpu.inst             766943                       # Total read bandwidth from this memory (bytes/s)
system.mem_ctrls.bw_read::cpu.data           34666484                       # Total read bandwidth from this memory (bytes/s)
system.mem_ctrls.bw_read::total              35433427                       # Total read bandwidth from this memory (bytes/s)
system.mem_ctrls.bw_inst_read::cpu.inst        766943                       # Instruction read bandwidth from this memory (bytes/s)
system.mem_ctrls.bw_inst_read::total           766943                       # Instruction read bandwidth from this memory (bytes/s)
system.mem_ctrls.bw_write::writebacks         2350313                       # Write bandwidth from this memory (bytes/s)
system.mem_ctrls.bw_write::total              2350313                       # Write bandwidth from this memory (bytes/s)
system.mem_ctrls.bw_total::writebacks         2350313                       # Total bandwidth to/from this memory (bytes/s)
system.mem_ctrls.bw_total::cpu.inst            766943                       # Total bandwidth to/from this memory (bytes/s)
system.mem_ctrls.bw_total::cpu.data          34666484                       # Total bandwidth to/from this memory (bytes/s)
system.mem_ctrls.bw_total::total             37783740                       # Total bandwidth to/from this memory (bytes/s)
system.mem_ctrls.readReqs                      335834                       # Number of read requests accepted
system.mem_ctrls.writeReqs                      22276                       # Number of write requests accepted
system.mem_ctrls.readBursts                    335834                       # Number of DRAM read bursts, including those serviced by the write queue
system.mem_ctrls.writeBursts                    22276                       # Number of DRAM write bursts, including those merged in the write queue
system.mem_ctrls.bytesReadDRAM               21301952                       # Total number of bytes read from DRAM
system.mem_ctrls.bytesReadWrQ                  191424                       # Total number of bytes read from write queue
system.mem_ctrls.bytesWritten                 1006336                       # Total number of bytes written to DRAM
system.mem_ctrls.bytesReadSys                 5373344                       # Total read bytes from the system interface side
system.mem_ctrls.bytesWrittenSys               356416                       # Total written bytes from the system interface side
system.mem_ctrls.servicedByWrQ                   2991                       # Number of DRAM read bursts serviced by the write queue
system.mem_ctrls.mergedWrBursts                  6529                       # Number of DRAM write bursts merged with an existing one
system.mem_ctrls.neitherReadNorWriteReqs            0                       # Number of requests that are neither read nor write
system.mem_ctrls.perBankRdBursts::0             61787                       # Per bank write bursts
system.mem_ctrls.perBankRdBursts::1             63728                       # Per bank write bursts
system.mem_ctrls.perBankRdBursts::2             22668                       # Per bank write bursts
system.mem_ctrls.perBankRdBursts::3               544                       # Per bank write bursts
system.mem_ctrls.perBankRdBursts::4               940                       # Per bank write bursts
system.mem_ctrls.perBankRdBursts::5              3831                       # Per bank write bursts
system.mem_ctrls.perBankRdBursts::6              7277                       # Per bank write bursts
system.mem_ctrls.perBankRdBursts::7             19073                       # Per bank write bursts
system.mem_ctrls.perBankRdBursts::8               686                       # Per bank write bursts
system.mem_ctrls.perBankRdBursts::9               661                       # Per bank write bursts
system.mem_ctrls.perBankRdBursts::10               35                       # Per bank write bursts
system.mem_ctrls.perBankRdBursts::11              702                       # Per bank write bursts
system.mem_ctrls.perBankRdBursts::12              588                       # Per bank write bursts
system.mem_ctrls.perBankRdBursts::13            29865                       # Per bank write bursts
system.mem_ctrls.perBankRdBursts::14            59199                       # Per bank write bursts
system.mem_ctrls.perBankRdBursts::15            61259                       # Per bank write bursts
system.mem_ctrls.perBankWrBursts::0               316                       # Per bank write bursts
system.mem_ctrls.perBankWrBursts::1               315                       # Per bank write bursts
system.mem_ctrls.perBankWrBursts::2               443                       # Per bank write bursts
system.mem_ctrls.perBankWrBursts::3                 9                       # Per bank write bursts
system.mem_ctrls.perBankWrBursts::4                19                       # Per bank write bursts
system.mem_ctrls.perBankWrBursts::5               232                       # Per bank write bursts
system.mem_ctrls.perBankWrBursts::6              3344                       # Per bank write bursts
system.mem_ctrls.perBankWrBursts::7             10128                       # Per bank write bursts
system.mem_ctrls.perBankWrBursts::8                 0                       # Per bank write bursts
system.mem_ctrls.perBankWrBursts::9                 0                       # Per bank write bursts
system.mem_ctrls.perBankWrBursts::10                0                       # Per bank write bursts
system.mem_ctrls.perBankWrBursts::11                0                       # Per bank write bursts
system.mem_ctrls.perBankWrBursts::12              116                       # Per bank write bursts
system.mem_ctrls.perBankWrBursts::13              237                       # Per bank write bursts
system.mem_ctrls.perBankWrBursts::14              280                       # Per bank write bursts
system.mem_ctrls.perBankWrBursts::15              285                       # Per bank write bursts
system.mem_ctrls.numRdRetry                         0                       # Number of times read queue was full causing retry
system.mem_ctrls.numWrRetry                         0                       # Number of times write queue was full causing retry
system.mem_ctrls.totGap                  151646105500                       # Total gap between requests
system.mem_ctrls.readPktSize::0                     0                       # Read request sizes (log2)
system.mem_ctrls.readPktSize::1                     0                       # Read request sizes (log2)
system.mem_ctrls.readPktSize::2                     0                       # Read request sizes (log2)
system.mem_ctrls.readPktSize::3                     0                       # Read request sizes (log2)
system.mem_ctrls.readPktSize::4                335834                       # Read request sizes (log2)
system.mem_ctrls.readPktSize::5                     0                       # Read request sizes (log2)
system.mem_ctrls.readPktSize::6                     0                       # Read request sizes (log2)
system.mem_ctrls.writePktSize::0                    0                       # Write request sizes (log2)
system.mem_ctrls.writePktSize::1                    0                       # Write request sizes (log2)
system.mem_ctrls.writePktSize::2                    0                       # Write request sizes (log2)
system.mem_ctrls.writePktSize::3                    0                       # Write request sizes (log2)
system.mem_ctrls.writePktSize::4                22276                       # Write request sizes (log2)
system.mem_ctrls.writePktSize::5                    0                       # Write request sizes (log2)
system.mem_ctrls.writePktSize::6                    0                       # Write request sizes (log2)
system.mem_ctrls.rdQLenPdf::0                  332767                       # What read queue length does an incoming req see
system.mem_ctrls.rdQLenPdf::1                      76                       # What read queue length does an incoming req see
system.mem_ctrls.rdQLenPdf::2                       0                       # What read queue length does an incoming req see
system.mem_ctrls.rdQLenPdf::3                       0                       # What read queue length does an incoming req see
system.mem_ctrls.rdQLenPdf::4                       0                       # What read queue length does an incoming req see
system.mem_ctrls.rdQLenPdf::5                       0                       # What read queue length does an incoming req see
system.mem_ctrls.rdQLenPdf::6                       0                       # What read queue length does an incoming req see
system.mem_ctrls.rdQLenPdf::7                       0                       # What read queue length does an incoming req see
system.mem_ctrls.rdQLenPdf::8                       0                       # What read queue length does an incoming req see
system.mem_ctrls.rdQLenPdf::9                       0                       # What read queue length does an incoming req see
system.mem_ctrls.rdQLenPdf::10                      0                       # What read queue length does an incoming req see
system.mem_ctrls.rdQLenPdf::11                      0                       # What read queue length does an incoming req see
system.mem_ctrls.rdQLenPdf::12                      0                       # What read queue length does an incoming req see
system.mem_ctrls.rdQLenPdf::13                      0                       # What read queue length does an incoming req see
system.mem_ctrls.rdQLenPdf::14                      0                       # What read queue length does an incoming req see
system.mem_ctrls.rdQLenPdf::15                      0                       # What read queue length does an incoming req see
system.mem_ctrls.rdQLenPdf::16                      0                       # What read queue length does an incoming req see
system.mem_ctrls.rdQLenPdf::17                      0                       # What read queue length does an incoming req see
system.mem_ctrls.rdQLenPdf::18                      0                       # What read queue length does an incoming req see
system.mem_ctrls.rdQLenPdf::19                      0                       # What read queue length does an incoming req see
system.mem_ctrls.rdQLenPdf::20                      0                       # What read queue length does an incoming req see
system.mem_ctrls.rdQLenPdf::21                      0                       # What read queue length does an incoming req see
system.mem_ctrls.rdQLenPdf::22                      0                       # What read queue length does an incoming req see
system.mem_ctrls.rdQLenPdf::23                      0                       # What read queue length does an incoming req see
system.mem_ctrls.rdQLenPdf::24                      0                       # What read queue length does an incoming req see
system.mem_ctrls.rdQLenPdf::25                      0                       # What read queue length does an incoming req see
system.mem_ctrls.rdQLenPdf::26                      0                       # What read queue length does an incoming req see
system.mem_ctrls.rdQLenPdf::27                      0                       # What read queue length does an incoming req see
system.mem_ctrls.rdQLenPdf::28                      0                       # What read queue length does an incoming req see
system.mem_ctrls.rdQLenPdf::29                      0                       # What read queue length does an incoming req see
system.mem_ctrls.rdQLenPdf::30                      0                       # What read queue length does an incoming req see
system.mem_ctrls.rdQLenPdf::31                      0                       # What read queue length does an incoming req see
system.mem_ctrls.wrQLenPdf::0                       1                       # What write queue length does an incoming req see
system.mem_ctrls.wrQLenPdf::1                       1                       # What write queue length does an incoming req see
system.mem_ctrls.wrQLenPdf::2                       1                       # What write queue length does an incoming req see
system.mem_ctrls.wrQLenPdf::3                       1                       # What write queue length does an incoming req see
system.mem_ctrls.wrQLenPdf::4                       1                       # What write queue length does an incoming req see
system.mem_ctrls.wrQLenPdf::5                       1                       # What write queue length does an incoming req see
system.mem_ctrls.wrQLenPdf::6                       1                       # What write queue length does an incoming req see
system.mem_ctrls.wrQLenPdf::7                       1                       # What write queue length does an incoming req see
system.mem_ctrls.wrQLenPdf::8                       1                       # What write queue length does an incoming req see
system.mem_ctrls.wrQLenPdf::9                       1                       # What write queue length does an incoming req see
system.mem_ctrls.wrQLenPdf::10                      1                       # What write queue length does an incoming req see
system.mem_ctrls.wrQLenPdf::11                      1                       # What write queue length does an incoming req see
system.mem_ctrls.wrQLenPdf::12                      1                       # What write queue length does an incoming req see
system.mem_ctrls.wrQLenPdf::13                      1                       # What write queue length does an incoming req see
system.mem_ctrls.wrQLenPdf::14                      1                       # What write queue length does an incoming req see
system.mem_ctrls.wrQLenPdf::15                    757                       # What write queue length does an incoming req see
system.mem_ctrls.wrQLenPdf::16                    759                       # What write queue length does an incoming req see
system.mem_ctrls.wrQLenPdf::17                    887                       # What write queue length does an incoming req see
system.mem_ctrls.wrQLenPdf::18                    889                       # What write queue length does an incoming req see
system.mem_ctrls.wrQLenPdf::19                    890                       # What write queue length does an incoming req see
system.mem_ctrls.wrQLenPdf::20                    890                       # What write queue length does an incoming req see
system.mem_ctrls.wrQLenPdf::21                    889                       # What write queue length does an incoming req see
system.mem_ctrls.wrQLenPdf::22                    889                       # What write queue length does an incoming req see
system.mem_ctrls.wrQLenPdf::23                    889                       # What write queue length does an incoming req see
system.mem_ctrls.wrQLenPdf::24                    888                       # What write queue length does an incoming req see
system.mem_ctrls.wrQLenPdf::25                    888                       # What write queue length does an incoming req see
system.mem_ctrls.wrQLenPdf::26                    888                       # What write queue length does an incoming req see
system.mem_ctrls.wrQLenPdf::27                    888                       # What write queue length does an incoming req see
system.mem_ctrls.wrQLenPdf::28                    888                       # What write queue length does an incoming req see
system.mem_ctrls.wrQLenPdf::29                    888                       # What write queue length does an incoming req see
system.mem_ctrls.wrQLenPdf::30                    888                       # What write queue length does an incoming req see
system.mem_ctrls.wrQLenPdf::31                    888                       # What write queue length does an incoming req see
system.mem_ctrls.wrQLenPdf::32                    889                       # What write queue length does an incoming req see
system.mem_ctrls.wrQLenPdf::33                      0                       # What write queue length does an incoming req see
system.mem_ctrls.wrQLenPdf::34                      0                       # What write queue length does an incoming req see
system.mem_ctrls.wrQLenPdf::35                      0                       # What write queue length does an incoming req see
system.mem_ctrls.wrQLenPdf::36                      0                       # What write queue length does an incoming req see
system.mem_ctrls.wrQLenPdf::37                      0                       # What write queue length does an incoming req see
system.mem_ctrls.wrQLenPdf::38                      0                       # What write queue length does an incoming req see
system.mem_ctrls.wrQLenPdf::39                      0                       # What write queue length does an incoming req see
system.mem_ctrls.wrQLenPdf::40                      0                       # What write queue length does an incoming req see
system.mem_ctrls.wrQLenPdf::41                      0                       # What write queue length does an incoming req see
system.mem_ctrls.wrQLenPdf::42                      0                       # What write queue length does an incoming req see
system.mem_ctrls.wrQLenPdf::43                      0                       # What write queue length does an incoming req see
system.mem_ctrls.wrQLenPdf::44                      0                       # What write queue length does an incoming req see
system.mem_ctrls.wrQLenPdf::45                      0                       # What write queue length does an incoming req see
system.mem_ctrls.wrQLenPdf::46                      0                       # What write queue length does an incoming req see
system.mem_ctrls.wrQLenPdf::47                      0                       # What write queue length does an incoming req see
system.mem_ctrls.wrQLenPdf::48                      0                       # What write queue length does an incoming req see
system.mem_ctrls.wrQLenPdf::49                      0                       # What write queue length does an incoming req see
system.mem_ctrls.wrQLenPdf::50                      0                       # What write queue length does an incoming req see
system.mem_ctrls.wrQLenPdf::51                      0                       # What write queue length does an incoming req see
system.mem_ctrls.wrQLenPdf::52                      0                       # What write queue length does an incoming req see
system.mem_ctrls.wrQLenPdf::53                      0                       # What write queue length does an incoming req see
system.mem_ctrls.wrQLenPdf::54                      0                       # What write queue length does an incoming req see
system.mem_ctrls.wrQLenPdf::55                      0                       # What write queue length does an incoming req see
system.mem_ctrls.wrQLenPdf::56                      0                       # What write queue length does an incoming req see
system.mem_ctrls.wrQLenPdf::57                      0                       # What write queue length does an incoming req see
system.mem_ctrls.wrQLenPdf::58                      0                       # What write queue length does an incoming req see
system.mem_ctrls.wrQLenPdf::59                      0                       # What write queue length does an incoming req see
system.mem_ctrls.wrQLenPdf::60                      0                       # What write queue length does an incoming req see
system.mem_ctrls.wrQLenPdf::61                      0                       # What write queue length does an incoming req see
system.mem_ctrls.wrQLenPdf::62                      0                       # What write queue length does an incoming req see
system.mem_ctrls.wrQLenPdf::63                      0                       # What write queue length does an incoming req see
system.mem_ctrls.bytesPerActivate::samples        48607                       # Bytes accessed per row activation
system.mem_ctrls.bytesPerActivate::mean    458.908717                       # Bytes accessed per row activation
system.mem_ctrls.bytesPerActivate::gmean   275.226497                       # Bytes accessed per row activation
system.mem_ctrls.bytesPerActivate::stdev   388.986356                       # Bytes accessed per row activation
system.mem_ctrls.bytesPerActivate::0-127        13015     26.78%     26.78% # Bytes accessed per row activation
system.mem_ctrls.bytesPerActivate::128-255         8764     18.03%     44.81% # Bytes accessed per row activation
system.mem_ctrls.bytesPerActivate::256-383         3540      7.28%     52.09% # Bytes accessed per row activation
system.mem_ctrls.bytesPerActivate::384-511         3105      6.39%     58.48% # Bytes accessed per row activation
system.mem_ctrls.bytesPerActivate::512-639         3091      6.36%     64.84% # Bytes accessed per row activation
system.mem_ctrls.bytesPerActivate::640-767         2440      5.02%     69.86% # Bytes accessed per row activation
system.mem_ctrls.bytesPerActivate::768-895         1572      3.23%     73.09% # Bytes accessed per row activation
system.mem_ctrls.bytesPerActivate::896-1023         1228      2.53%     75.62% # Bytes accessed per row activation
system.mem_ctrls.bytesPerActivate::1024-1151        11852     24.38%    100.00% # Bytes accessed per row activation
system.mem_ctrls.bytesPerActivate::total        48607                       # Bytes accessed per row activation
system.mem_ctrls.rdPerTurnAround::samples          888                       # Reads before turning the bus around for writes
system.mem_ctrls.rdPerTurnAround::mean     374.304054                       # Reads before turning the bus around for writes
system.mem_ctrls.rdPerTurnAround::gmean    215.795276                       # Reads before turning the bus around for writes
system.mem_ctrls.rdPerTurnAround::stdev    405.890181                       # Reads before turning the bus around for writes
system.mem_ctrls.rdPerTurnAround::0-255           430     48.42%     48.42% # Reads before turning the bus around for writes
system.mem_ctrls.rdPerTurnAround::256-511          213     23.99%     72.41% # Reads before turning the bus around for writes
system.mem_ctrls.rdPerTurnAround::512-767          154     17.34%     89.75% # Reads before turning the bus around for writes
system.mem_ctrls.rdPerTurnAround::768-1023           49      5.52%     95.27% # Reads before turning the bus around for writes
system.mem_ctrls.rdPerTurnAround::1024-1279           14      1.58%     96.85% # Reads before turning the bus around for writes
system.mem_ctrls.rdPerTurnAround::1280-1535            6      0.68%     97.52% # Reads before turning the bus around for writes
system.mem_ctrls.rdPerTurnAround::1536-1791            7      0.79%     98.31% # Reads before turning the bus around for writes
system.mem_ctrls.rdPerTurnAround::1792-2047            9      1.01%     99.32% # Reads before turning the bus around for writes
system.mem_ctrls.rdPerTurnAround::2048-2303            3      0.34%     99.66% # Reads before turning the bus around for writes
system.mem_ctrls.rdPerTurnAround::2304-2559            1      0.11%     99.77% # Reads before turning the bus around for writes
system.mem_ctrls.rdPerTurnAround::2560-2815            1      0.11%     99.89% # Reads before turning the bus around for writes
system.mem_ctrls.rdPerTurnAround::4608-4863            1      0.11%    100.00% # Reads before turning the bus around for writes
system.mem_ctrls.rdPerTurnAround::total           888                       # Reads before turning the bus around for writes
system.mem_ctrls.wrPerTurnAround::samples          888                       # Writes before turning the bus around for reads
system.mem_ctrls.wrPerTurnAround::mean      17.707207                       # Writes before turning the bus around for reads
system.mem_ctrls.wrPerTurnAround::gmean     17.692294                       # Writes before turning the bus around for reads
system.mem_ctrls.wrPerTurnAround::stdev      0.707405                       # Writes before turning the bus around for reads
system.mem_ctrls.wrPerTurnAround::16              129     14.53%     14.53% # Writes before turning the bus around for reads
system.mem_ctrls.wrPerTurnAround::17                3      0.34%     14.86% # Writes before turning the bus around for reads
system.mem_ctrls.wrPerTurnAround::18              755     85.02%     99.89% # Writes before turning the bus around for reads
system.mem_ctrls.wrPerTurnAround::19                1      0.11%    100.00% # Writes before turning the bus around for reads
system.mem_ctrls.wrPerTurnAround::total           888                       # Writes before turning the bus around for reads
system.mem_ctrls.totQLat                   6309841750                       # Total ticks spent queuing
system.mem_ctrls.totMemAccLat             12550648000                       # Total ticks spent from burst creation until serviced by the DRAM
system.mem_ctrls.totBusLat                 1664215000                       # Total ticks spent in databus transfers
system.mem_ctrls.avgQLat                     18957.41                       # Average queueing delay per DRAM burst
system.mem_ctrls.avgBusLat                    5000.00                       # Average bus latency per DRAM burst
system.mem_ctrls.avgMemAccLat                37707.41                       # Average memory access latency per DRAM burst
system.mem_ctrls.avgRdBW                       140.47                       # Average DRAM read bandwidth in MiByte/s
system.mem_ctrls.avgWrBW                         6.64                       # Average achieved write bandwidth in MiByte/s
system.mem_ctrls.avgRdBWSys                     35.43                       # Average system read bandwidth in MiByte/s
system.mem_ctrls.avgWrBWSys                      2.35                       # Average system write bandwidth in MiByte/s
system.mem_ctrls.peakBW                      12800.00                       # Theoretical peak bandwidth in MiByte/s
system.mem_ctrls.busUtil                         1.15                       # Data bus utilization in percentage
system.mem_ctrls.busUtilRead                     1.10                       # Data bus utilization in percentage for reads
system.mem_ctrls.busUtilWrite                    0.05                       # Data bus utilization in percentage for writes
system.mem_ctrls.avgRdQLen                       1.00                       # Average read queue length when enqueuing
system.mem_ctrls.avgWrQLen                      24.92                       # Average write queue length when enqueuing
system.mem_ctrls.readRowHits                   285699                       # Number of row buffer hits during reads
system.mem_ctrls.writeRowHits                   14254                       # Number of row buffer hits during writes
system.mem_ctrls.readRowHitRate                 85.84                       # Row buffer hit rate for reads
system.mem_ctrls.writeRowHitRate                90.52                       # Row buffer hit rate for writes
system.mem_ctrls.avgGap                     423462.36                       # Average gap between requests
system.mem_ctrls.pageHitRate                    86.05                       # Row buffer hit rate, read and write combined
system.mem_ctrls_0.actEnergy                222382440                       # Energy for activate commands per rank (pJ)
system.mem_ctrls_0.preEnergy                118183890                       # Energy for precharge commands per rank (pJ)
system.mem_ctrls_0.readEnergy              1284114720                       # Energy for read commands per rank (pJ)
system.mem_ctrls_0.writeEnergy               77287320                       # Energy for write commands per rank (pJ)
system.mem_ctrls_0.refreshEnergy         12300790320.000002                       # Energy for refresh commands per rank (pJ)
system.mem_ctrls_0.actBackEnergy           5297543520                       # Energy for active background per rank (pJ)
system.mem_ctrls_0.preBackEnergy            452984640                       # Energy for precharge background per rank (pJ)
system.mem_ctrls_0.actPowerDownEnergy     39426092880                       # Energy for active power-down per rank (pJ)
system.mem_ctrls_0.prePowerDownEnergy     15592288800                       # Energy for precharge power-down per rank (pJ)
system.mem_ctrls_0.selfRefreshEnergy       4041303480                       # Energy for self refresh per rank (pJ)
system.mem_ctrls_0.totalEnergy            78831271020                       # Total energy per rank (pJ)
system.mem_ctrls_0.averagePower            519.836828                       # Core power per rank (mW)
system.mem_ctrls_0.totalIdleTime         138808139750                       # Total Idle time Per DRAM Rank
system.mem_ctrls_0.memoryStateTime::IDLE    683963500                       # Time in different power states
system.mem_ctrls_0.memoryStateTime::REF    5217744000                       # Time in different power states
system.mem_ctrls_0.memoryStateTime::SREF  11742699750                       # Time in different power states
system.mem_ctrls_0.memoryStateTime::PRE_PDN  40604870250                       # Time in different power states
system.mem_ctrls_0.memoryStateTime::ACT    6936118250                       # Time in different power states
system.mem_ctrls_0.memoryStateTime::ACT_PDN  86460787750                       # Time in different power states
system.mem_ctrls_1.actEnergy                124721520                       # Energy for activate commands per rank (pJ)
system.mem_ctrls_1.preEnergy                 66279675                       # Energy for precharge commands per rank (pJ)
system.mem_ctrls_1.readEnergy              1092384300                       # Energy for read commands per rank (pJ)
system.mem_ctrls_1.writeEnergy                4791960                       # Energy for write commands per rank (pJ)
system.mem_ctrls_1.refreshEnergy         9281064000.000002                       # Energy for refresh commands per rank (pJ)
system.mem_ctrls_1.actBackEnergy           3714489360                       # Energy for active background per rank (pJ)
system.mem_ctrls_1.preBackEnergy            434923680                       # Energy for precharge background per rank (pJ)
system.mem_ctrls_1.actPowerDownEnergy     26914214970                       # Energy for active power-down per rank (pJ)
system.mem_ctrls_1.prePowerDownEnergy     12360419520                       # Energy for precharge power-down per rank (pJ)
system.mem_ctrls_1.selfRefreshEnergy      13578701340                       # Energy for self refresh per rank (pJ)
system.mem_ctrls_1.totalEnergy            67575969975                       # Total energy per rank (pJ)
system.mem_ctrls_1.averagePower            445.616028                       # Core power per rank (mW)
system.mem_ctrls_1.totalIdleTime         142358185500                       # Total Idle time Per DRAM Rank
system.mem_ctrls_1.memoryStateTime::IDLE    711831000                       # Time in different power states
system.mem_ctrls_1.memoryStateTime::REF    3940952000                       # Time in different power states
system.mem_ctrls_1.memoryStateTime::SREF  51147846250                       # Time in different power states
system.mem_ctrls_1.memoryStateTime::PRE_PDN  32188418750                       # Time in different power states
system.mem_ctrls_1.memoryStateTime::ACT    4635173250                       # Time in different power states
system.mem_ctrls_1.memoryStateTime::ACT_PDN  59021962250                       # Time in different power states
system.pwrStateResidencyTicks::UNDEFINED 151646183500                       # Cumulative time (in ticks) in various power states
system.cpu_voltage_domain.voltage                   1                       # Voltage in Volts
system.cpu_clk_domain.clock                       500                       # Clock period in ticks
system.cpu.dstage2_mmu.stage2_tlb.walker.pwrStateResidencyTicks::UNDEFINED 151646183500                       # Cumulative time (in ticks) in various power states
system.cpu.dstage2_mmu.stage2_tlb.walker.walks            0                       # Table walker walks requested
system.cpu.dstage2_mmu.stage2_tlb.walker.walkRequestOrigin_Requested::Data            0                       # Table walker requests started/completed, data/inst
system.cpu.dstage2_mmu.stage2_tlb.walker.walkRequestOrigin_Requested::Inst            0                       # Table walker requests started/completed, data/inst
system.cpu.dstage2_mmu.stage2_tlb.walker.walkRequestOrigin_Requested::total            0                       # Table walker requests started/completed, data/inst
system.cpu.dstage2_mmu.stage2_tlb.walker.walkRequestOrigin_Completed::Data            0                       # Table walker requests started/completed, data/inst
system.cpu.dstage2_mmu.stage2_tlb.walker.walkRequestOrigin_Completed::Inst            0                       # Table walker requests started/completed, data/inst
system.cpu.dstage2_mmu.stage2_tlb.walker.walkRequestOrigin_Completed::total            0                       # Table walker requests started/completed, data/inst
system.cpu.dstage2_mmu.stage2_tlb.walker.walkRequestOrigin::total            0                       # Table walker requests started/completed, data/inst
system.cpu.dstage2_mmu.stage2_tlb.inst_hits            0                       # ITB inst hits
system.cpu.dstage2_mmu.stage2_tlb.inst_misses            0                       # ITB inst misses
system.cpu.dstage2_mmu.stage2_tlb.read_hits            0                       # DTB read hits
system.cpu.dstage2_mmu.stage2_tlb.read_misses            0                       # DTB read misses
system.cpu.dstage2_mmu.stage2_tlb.write_hits            0                       # DTB write hits
system.cpu.dstage2_mmu.stage2_tlb.write_misses            0                       # DTB write misses
system.cpu.dstage2_mmu.stage2_tlb.flush_tlb            0                       # Number of times complete TLB was flushed
system.cpu.dstage2_mmu.stage2_tlb.flush_tlb_mva            0                       # Number of times TLB was flushed by MVA
system.cpu.dstage2_mmu.stage2_tlb.flush_tlb_mva_asid            0                       # Number of times TLB was flushed by MVA & ASID
system.cpu.dstage2_mmu.stage2_tlb.flush_tlb_asid            0                       # Number of times TLB was flushed by ASID
system.cpu.dstage2_mmu.stage2_tlb.flush_entries            0                       # Number of entries that have been flushed from TLB
system.cpu.dstage2_mmu.stage2_tlb.align_faults            0                       # Number of TLB faults due to alignment restrictions
system.cpu.dstage2_mmu.stage2_tlb.prefetch_faults            0                       # Number of TLB faults due to prefetch
system.cpu.dstage2_mmu.stage2_tlb.domain_faults            0                       # Number of TLB faults due to domain restrictions
system.cpu.dstage2_mmu.stage2_tlb.perms_faults            0                       # Number of TLB faults due to permissions restrictions
system.cpu.dstage2_mmu.stage2_tlb.read_accesses            0                       # DTB read accesses
system.cpu.dstage2_mmu.stage2_tlb.write_accesses            0                       # DTB write accesses
system.cpu.dstage2_mmu.stage2_tlb.inst_accesses            0                       # ITB inst accesses
system.cpu.dstage2_mmu.stage2_tlb.hits              0                       # DTB hits
system.cpu.dstage2_mmu.stage2_tlb.misses            0                       # DTB misses
system.cpu.dstage2_mmu.stage2_tlb.accesses            0                       # DTB accesses
system.cpu.dtb.walker.pwrStateResidencyTicks::UNDEFINED 151646183500                       # Cumulative time (in ticks) in various power states
system.cpu.dtb.walker.walks                         0                       # Table walker walks requested
system.cpu.dtb.walker.walkRequestOrigin_Requested::Data            0                       # Table walker requests started/completed, data/inst
system.cpu.dtb.walker.walkRequestOrigin_Requested::Inst            0                       # Table walker requests started/completed, data/inst
system.cpu.dtb.walker.walkRequestOrigin_Requested::total            0                       # Table walker requests started/completed, data/inst
system.cpu.dtb.walker.walkRequestOrigin_Completed::Data            0                       # Table walker requests started/completed, data/inst
system.cpu.dtb.walker.walkRequestOrigin_Completed::Inst            0                       # Table walker requests started/completed, data/inst
system.cpu.dtb.walker.walkRequestOrigin_Completed::total            0                       # Table walker requests started/completed, data/inst
system.cpu.dtb.walker.walkRequestOrigin::total            0                       # Table walker requests started/completed, data/inst
system.cpu.dtb.inst_hits                            0                       # ITB inst hits
system.cpu.dtb.inst_misses                          0                       # ITB inst misses
system.cpu.dtb.read_hits                            0                       # DTB read hits
system.cpu.dtb.read_misses                          0                       # DTB read misses
system.cpu.dtb.write_hits                           0                       # DTB write hits
system.cpu.dtb.write_misses                         0                       # DTB write misses
system.cpu.dtb.flush_tlb                            0                       # Number of times complete TLB was flushed
system.cpu.dtb.flush_tlb_mva                        0                       # Number of times TLB was flushed by MVA
system.cpu.dtb.flush_tlb_mva_asid                   0                       # Number of times TLB was flushed by MVA & ASID
system.cpu.dtb.flush_tlb_asid                       0                       # Number of times TLB was flushed by ASID
system.cpu.dtb.flush_entries                        0                       # Number of entries that have been flushed from TLB
system.cpu.dtb.align_faults                         0                       # Number of TLB faults due to alignment restrictions
system.cpu.dtb.prefetch_faults                      0                       # Number of TLB faults due to prefetch
system.cpu.dtb.domain_faults                        0                       # Number of TLB faults due to domain restrictions
system.cpu.dtb.perms_faults                         0                       # Number of TLB faults due to permissions restrictions
system.cpu.dtb.read_accesses                        0                       # DTB read accesses
system.cpu.dtb.write_accesses                       0                       # DTB write accesses
system.cpu.dtb.inst_accesses                        0                       # ITB inst accesses
system.cpu.dtb.hits                                 0                       # DTB hits
system.cpu.dtb.misses                               0                       # DTB misses
system.cpu.dtb.accesses                             0                       # DTB accesses
system.cpu.istage2_mmu.stage2_tlb.walker.pwrStateResidencyTicks::UNDEFINED 151646183500                       # Cumulative time (in ticks) in various power states
system.cpu.istage2_mmu.stage2_tlb.walker.walks            0                       # Table walker walks requested
system.cpu.istage2_mmu.stage2_tlb.walker.walkRequestOrigin_Requested::Data            0                       # Table walker requests started/completed, data/inst
system.cpu.istage2_mmu.stage2_tlb.walker.walkRequestOrigin_Requested::Inst            0                       # Table walker requests started/completed, data/inst
system.cpu.istage2_mmu.stage2_tlb.walker.walkRequestOrigin_Requested::total            0                       # Table walker requests started/completed, data/inst
system.cpu.istage2_mmu.stage2_tlb.walker.walkRequestOrigin_Completed::Data            0                       # Table walker requests started/completed, data/inst
system.cpu.istage2_mmu.stage2_tlb.walker.walkRequestOrigin_Completed::Inst            0                       # Table walker requests started/completed, data/inst
system.cpu.istage2_mmu.stage2_tlb.walker.walkRequestOrigin_Completed::total            0                       # Table walker requests started/completed, data/inst
system.cpu.istage2_mmu.stage2_tlb.walker.walkRequestOrigin::total            0                       # Table walker requests started/completed, data/inst
system.cpu.istage2_mmu.stage2_tlb.inst_hits            0                       # ITB inst hits
system.cpu.istage2_mmu.stage2_tlb.inst_misses            0                       # ITB inst misses
system.cpu.istage2_mmu.stage2_tlb.read_hits            0                       # DTB read hits
system.cpu.istage2_mmu.stage2_tlb.read_misses            0                       # DTB read misses
system.cpu.istage2_mmu.stage2_tlb.write_hits            0                       # DTB write hits
system.cpu.istage2_mmu.stage2_tlb.write_misses            0                       # DTB write misses
system.cpu.istage2_mmu.stage2_tlb.flush_tlb            0                       # Number of times complete TLB was flushed
system.cpu.istage2_mmu.stage2_tlb.flush_tlb_mva            0                       # Number of times TLB was flushed by MVA
system.cpu.istage2_mmu.stage2_tlb.flush_tlb_mva_asid            0                       # Number of times TLB was flushed by MVA & ASID
system.cpu.istage2_mmu.stage2_tlb.flush_tlb_asid            0                       # Number of times TLB was flushed by ASID
system.cpu.istage2_mmu.stage2_tlb.flush_entries            0                       # Number of entries that have been flushed from TLB
system.cpu.istage2_mmu.stage2_tlb.align_faults            0                       # Number of TLB faults due to alignment restrictions
system.cpu.istage2_mmu.stage2_tlb.prefetch_faults            0                       # Number of TLB faults due to prefetch
system.cpu.istage2_mmu.stage2_tlb.domain_faults            0                       # Number of TLB faults due to domain restrictions
system.cpu.istage2_mmu.stage2_tlb.perms_faults            0                       # Number of TLB faults due to permissions restrictions
system.cpu.istage2_mmu.stage2_tlb.read_accesses            0                       # DTB read accesses
system.cpu.istage2_mmu.stage2_tlb.write_accesses            0                       # DTB write accesses
system.cpu.istage2_mmu.stage2_tlb.inst_accesses            0                       # ITB inst accesses
system.cpu.istage2_mmu.stage2_tlb.hits              0                       # DTB hits
system.cpu.istage2_mmu.stage2_tlb.misses            0                       # DTB misses
system.cpu.istage2_mmu.stage2_tlb.accesses            0                       # DTB accesses
system.cpu.itb.walker.pwrStateResidencyTicks::UNDEFINED 151646183500                       # Cumulative time (in ticks) in various power states
system.cpu.itb.walker.walks                         0                       # Table walker walks requested
system.cpu.itb.walker.walkRequestOrigin_Requested::Data            0                       # Table walker requests started/completed, data/inst
system.cpu.itb.walker.walkRequestOrigin_Requested::Inst            0                       # Table walker requests started/completed, data/inst
system.cpu.itb.walker.walkRequestOrigin_Requested::total            0                       # Table walker requests started/completed, data/inst
system.cpu.itb.walker.walkRequestOrigin_Completed::Data            0                       # Table walker requests started/completed, data/inst
system.cpu.itb.walker.walkRequestOrigin_Completed::Inst            0                       # Table walker requests started/completed, data/inst
system.cpu.itb.walker.walkRequestOrigin_Completed::total            0                       # Table walker requests started/completed, data/inst
system.cpu.itb.walker.walkRequestOrigin::total            0                       # Table walker requests started/completed, data/inst
system.cpu.itb.inst_hits                            0                       # ITB inst hits
system.cpu.itb.inst_misses                          0                       # ITB inst misses
system.cpu.itb.read_hits                            0                       # DTB read hits
system.cpu.itb.read_misses                          0                       # DTB read misses
system.cpu.itb.write_hits                           0                       # DTB write hits
system.cpu.itb.write_misses                         0                       # DTB write misses
system.cpu.itb.flush_tlb                            0                       # Number of times complete TLB was flushed
system.cpu.itb.flush_tlb_mva                        0                       # Number of times TLB was flushed by MVA
system.cpu.itb.flush_tlb_mva_asid                   0                       # Number of times TLB was flushed by MVA & ASID
system.cpu.itb.flush_tlb_asid                       0                       # Number of times TLB was flushed by ASID
system.cpu.itb.flush_entries                        0                       # Number of entries that have been flushed from TLB
system.cpu.itb.align_faults                         0                       # Number of TLB faults due to alignment restrictions
system.cpu.itb.prefetch_faults                      0                       # Number of TLB faults due to prefetch
system.cpu.itb.domain_faults                        0                       # Number of TLB faults due to domain restrictions
system.cpu.itb.perms_faults                         0                       # Number of TLB faults due to permissions restrictions
system.cpu.itb.read_accesses                        0                       # DTB read accesses
system.cpu.itb.write_accesses                       0                       # DTB write accesses
system.cpu.itb.inst_accesses                        0                       # ITB inst accesses
system.cpu.itb.hits                                 0                       # DTB hits
system.cpu.itb.misses                               0                       # DTB misses
system.cpu.itb.accesses                             0                       # DTB accesses
system.cpu.workload.numSyscalls                   239                       # Number of system calls
system.cpu.pwrStateResidencyTicks::ON    151646183500                       # Cumulative time (in ticks) in various power states
system.cpu.numCycles                        303292367                       # number of cpu cycles simulated
system.cpu.numWorkItemsStarted                      0                       # number of work items this cpu started
system.cpu.numWorkItemsCompleted                    0                       # number of work items this cpu completed
system.cpu.committedInsts                    43681715                       # Number of instructions committed
system.cpu.committedOps                      46438296                       # Number of ops (including micro ops) committed
system.cpu.num_int_alu_accesses              36550911                       # Number of integer alu accesses
system.cpu.num_fp_alu_accesses                     16                       # Number of float alu accesses
system.cpu.num_vec_alu_accesses                     0                       # Number of vector alu accesses
system.cpu.num_func_calls                      479840                       # number of times a function call or return occured
system.cpu.num_conditional_control_insts      9756862                       # number of instructions that are conditional controls
system.cpu.num_int_insts                     36550911                       # number of integer instructions
system.cpu.num_fp_insts                            16                       # number of float instructions
system.cpu.num_vec_insts                            0                       # number of vector instructions
system.cpu.num_int_register_reads            62405331                       # number of times the integer registers were read
system.cpu.num_int_register_writes           21331325                       # number of times the integer registers were written
system.cpu.num_fp_register_reads                   16                       # number of times the floating registers were read
system.cpu.num_fp_register_writes                   0                       # number of times the floating registers were written
system.cpu.num_vec_register_reads                   0                       # number of times the vector registers were read
system.cpu.num_vec_register_writes                  0                       # number of times the vector registers were written
system.cpu.num_cc_register_reads            167328390                       # number of times the CC registers were read
system.cpu.num_cc_register_writes            30215577                       # number of times the CC registers were written
system.cpu.num_mem_refs                      14199991                       # number of memory refs
system.cpu.num_load_insts                     9180678                       # Number of load instructions
system.cpu.num_store_insts                    5019313                       # Number of store instructions
system.cpu.num_idle_cycles                          0                       # Number of idle cycles
system.cpu.num_busy_cycles                  303292367                       # Number of busy cycles
system.cpu.not_idle_fraction                        1                       # Percentage of non-idle cycles
system.cpu.idle_fraction                            0                       # Percentage of idle cycles
system.cpu.Branches                          10612419                       # Number of branches fetched
system.cpu.op_class::No_OpClass                     0      0.00%      0.00% # Class of executed instruction
system.cpu.op_class::IntAlu                  32367987     69.48%     69.48% # Class of executed instruction
system.cpu.op_class::IntMult                    19468      0.04%     69.52% # Class of executed instruction
system.cpu.op_class::IntDiv                         0      0.00%     69.52% # Class of executed instruction
system.cpu.op_class::FloatAdd                       0      0.00%     69.52% # Class of executed instruction
system.cpu.op_class::FloatCmp                       0      0.00%     69.52% # Class of executed instruction
system.cpu.op_class::FloatCvt                       0      0.00%     69.52% # Class of executed instruction
system.cpu.op_class::FloatMult                      0      0.00%     69.52% # Class of executed instruction
system.cpu.op_class::FloatMultAcc                   0      0.00%     69.52% # Class of executed instruction
system.cpu.op_class::FloatDiv                       0      0.00%     69.52% # Class of executed instruction
system.cpu.op_class::FloatMisc                      0      0.00%     69.52% # Class of executed instruction
system.cpu.op_class::FloatSqrt                      0      0.00%     69.52% # Class of executed instruction
system.cpu.op_class::SimdAdd                        0      0.00%     69.52% # Class of executed instruction
system.cpu.op_class::SimdAddAcc                     0      0.00%     69.52% # Class of executed instruction
system.cpu.op_class::SimdAlu                        0      0.00%     69.52% # Class of executed instruction
system.cpu.op_class::SimdCmp                        0      0.00%     69.52% # Class of executed instruction
system.cpu.op_class::SimdCvt                        0      0.00%     69.52% # Class of executed instruction
system.cpu.op_class::SimdMisc                       0      0.00%     69.52% # Class of executed instruction
system.cpu.op_class::SimdMult                       0      0.00%     69.52% # Class of executed instruction
system.cpu.op_class::SimdMultAcc                    0      0.00%     69.52% # Class of executed instruction
system.cpu.op_class::SimdShift                      0      0.00%     69.52% # Class of executed instruction
system.cpu.op_class::SimdShiftAcc                   0      0.00%     69.52% # Class of executed instruction
system.cpu.op_class::SimdSqrt                       0      0.00%     69.52% # Class of executed instruction
system.cpu.op_class::SimdFloatAdd                   0      0.00%     69.52% # Class of executed instruction
system.cpu.op_class::SimdFloatAlu                   0      0.00%     69.52% # Class of executed instruction
system.cpu.op_class::SimdFloatCmp                   0      0.00%     69.52% # Class of executed instruction
system.cpu.op_class::SimdFloatCvt                   0      0.00%     69.52% # Class of executed instruction
system.cpu.op_class::SimdFloatDiv                   0      0.00%     69.52% # Class of executed instruction
system.cpu.op_class::SimdFloatMisc                  0      0.00%     69.52% # Class of executed instruction
system.cpu.op_class::SimdFloatMult                  0      0.00%     69.52% # Class of executed instruction
system.cpu.op_class::SimdFloatMultAcc               0      0.00%     69.52% # Class of executed instruction
system.cpu.op_class::SimdFloatSqrt                  0      0.00%     69.52% # Class of executed instruction
system.cpu.op_class::MemRead                  9180678     19.71%     89.23% # Class of executed instruction
system.cpu.op_class::MemWrite                 5019297     10.77%    100.00% # Class of executed instruction
system.cpu.op_class::FloatMemRead                   0      0.00%    100.00% # Class of executed instruction
system.cpu.op_class::FloatMemWrite                 16      0.00%    100.00% # Class of executed instruction
system.cpu.op_class::IprAccess                      0      0.00%    100.00% # Class of executed instruction
system.cpu.op_class::InstPrefetch                   0      0.00%    100.00% # Class of executed instruction
system.cpu.op_class::total                   46587446                       # Class of executed instruction
system.cpu.dcache.tags.pwrStateResidencyTicks::UNDEFINED 151646183500                       # Cumulative time (in ticks) in various power states
system.cpu.dcache.tags.replacements           3661503                       # number of replacements
system.cpu.dcache.tags.tagsinuse            63.996474                       # Cycle average of tags in use
system.cpu.dcache.tags.total_refs            10501349                       # Total number of references to valid blocks.
system.cpu.dcache.tags.sampled_refs           3661567                       # Sample count of references to valid blocks.
system.cpu.dcache.tags.avg_refs              2.867993                       # Average number of references to valid blocks.
system.cpu.dcache.tags.warmup_cycle          32675500                       # Cycle when the warmup percentage was hit.
system.cpu.dcache.tags.occ_blocks::cpu.data    63.996474                       # Average occupied blocks per requestor
system.cpu.dcache.tags.occ_percent::cpu.data     0.999945                       # Average percentage of cache occupancy
system.cpu.dcache.tags.occ_percent::total     0.999945                       # Average percentage of cache occupancy
system.cpu.dcache.tags.occ_task_id_blocks::1024           64                       # Occupied blocks per task id
system.cpu.dcache.tags.age_task_id_blocks_1024::0           28                       # Occupied blocks per task id
system.cpu.dcache.tags.age_task_id_blocks_1024::1           36                       # Occupied blocks per task id
system.cpu.dcache.tags.occ_task_id_percent::1024            1                       # Percentage of cache occupancy per task id
system.cpu.dcache.tags.tag_accesses          31987399                       # Number of tag accesses
system.cpu.dcache.tags.data_accesses         31987399                       # Number of data accesses
system.cpu.dcache.pwrStateResidencyTicks::UNDEFINED 151646183500                       # Cumulative time (in ticks) in various power states
system.cpu.dcache.ReadReq_hits::cpu.data      5700495                       # number of ReadReq hits
system.cpu.dcache.ReadReq_hits::total         5700495                       # number of ReadReq hits
system.cpu.dcache.WriteReq_hits::cpu.data      4610394                       # number of WriteReq hits
system.cpu.dcache.WriteReq_hits::total        4610394                       # number of WriteReq hits
system.cpu.dcache.LoadLockedReq_hits::cpu.data        95230                       # number of LoadLockedReq hits
system.cpu.dcache.LoadLockedReq_hits::total        95230                       # number of LoadLockedReq hits
system.cpu.dcache.StoreCondReq_hits::cpu.data        95230                       # number of StoreCondReq hits
system.cpu.dcache.StoreCondReq_hits::total        95230                       # number of StoreCondReq hits
system.cpu.dcache.demand_hits::cpu.data      10310889                       # number of demand (read+write) hits
system.cpu.dcache.demand_hits::total         10310889                       # number of demand (read+write) hits
system.cpu.dcache.overall_hits::cpu.data     10310889                       # number of overall hits
system.cpu.dcache.overall_hits::total        10310889                       # number of overall hits
system.cpu.dcache.ReadReq_misses::cpu.data      3409565                       # number of ReadReq misses
system.cpu.dcache.ReadReq_misses::total       3409565                       # number of ReadReq misses
system.cpu.dcache.WriteReq_misses::cpu.data       252002                       # number of WriteReq misses
system.cpu.dcache.WriteReq_misses::total       252002                       # number of WriteReq misses
system.cpu.dcache.demand_misses::cpu.data      3661567                       # number of demand (read+write) misses
system.cpu.dcache.demand_misses::total        3661567                       # number of demand (read+write) misses
system.cpu.dcache.overall_misses::cpu.data      3661567                       # number of overall misses
system.cpu.dcache.overall_misses::total       3661567                       # number of overall misses
system.cpu.dcache.ReadReq_miss_latency::cpu.data  68924388000                       # number of ReadReq miss cycles
system.cpu.dcache.ReadReq_miss_latency::total  68924388000                       # number of ReadReq miss cycles
system.cpu.dcache.WriteReq_miss_latency::cpu.data   4199786000                       # number of WriteReq miss cycles
system.cpu.dcache.WriteReq_miss_latency::total   4199786000                       # number of WriteReq miss cycles
system.cpu.dcache.demand_miss_latency::cpu.data  73124174000                       # number of demand (read+write) miss cycles
system.cpu.dcache.demand_miss_latency::total  73124174000                       # number of demand (read+write) miss cycles
system.cpu.dcache.overall_miss_latency::cpu.data  73124174000                       # number of overall miss cycles
system.cpu.dcache.overall_miss_latency::total  73124174000                       # number of overall miss cycles
system.cpu.dcache.ReadReq_accesses::cpu.data      9110060                       # number of ReadReq accesses(hits+misses)
system.cpu.dcache.ReadReq_accesses::total      9110060                       # number of ReadReq accesses(hits+misses)
system.cpu.dcache.WriteReq_accesses::cpu.data      4862396                       # number of WriteReq accesses(hits+misses)
system.cpu.dcache.WriteReq_accesses::total      4862396                       # number of WriteReq accesses(hits+misses)
system.cpu.dcache.LoadLockedReq_accesses::cpu.data        95230                       # number of LoadLockedReq accesses(hits+misses)
system.cpu.dcache.LoadLockedReq_accesses::total        95230                       # number of LoadLockedReq accesses(hits+misses)
system.cpu.dcache.StoreCondReq_accesses::cpu.data        95230                       # number of StoreCondReq accesses(hits+misses)
system.cpu.dcache.StoreCondReq_accesses::total        95230                       # number of StoreCondReq accesses(hits+misses)
system.cpu.dcache.demand_accesses::cpu.data     13972456                       # number of demand (read+write) accesses
system.cpu.dcache.demand_accesses::total     13972456                       # number of demand (read+write) accesses
system.cpu.dcache.overall_accesses::cpu.data     13972456                       # number of overall (read+write) accesses
system.cpu.dcache.overall_accesses::total     13972456                       # number of overall (read+write) accesses
system.cpu.dcache.ReadReq_miss_rate::cpu.data     0.374264                       # miss rate for ReadReq accesses
system.cpu.dcache.ReadReq_miss_rate::total     0.374264                       # miss rate for ReadReq accesses
system.cpu.dcache.WriteReq_miss_rate::cpu.data     0.051827                       # miss rate for WriteReq accesses
system.cpu.dcache.WriteReq_miss_rate::total     0.051827                       # miss rate for WriteReq accesses
system.cpu.dcache.demand_miss_rate::cpu.data     0.262056                       # miss rate for demand accesses
system.cpu.dcache.demand_miss_rate::total     0.262056                       # miss rate for demand accesses
system.cpu.dcache.overall_miss_rate::cpu.data     0.262056                       # miss rate for overall accesses
system.cpu.dcache.overall_miss_rate::total     0.262056                       # miss rate for overall accesses
system.cpu.dcache.ReadReq_avg_miss_latency::cpu.data 20215.009246                       # average ReadReq miss latency
system.cpu.dcache.ReadReq_avg_miss_latency::total 20215.009246                       # average ReadReq miss latency
system.cpu.dcache.WriteReq_avg_miss_latency::cpu.data 16665.685193                       # average WriteReq miss latency
system.cpu.dcache.WriteReq_avg_miss_latency::total 16665.685193                       # average WriteReq miss latency
system.cpu.dcache.demand_avg_miss_latency::cpu.data 19970.732203                       # average overall miss latency
system.cpu.dcache.demand_avg_miss_latency::total 19970.732203                       # average overall miss latency
system.cpu.dcache.overall_avg_miss_latency::cpu.data 19970.732203                       # average overall miss latency
system.cpu.dcache.overall_avg_miss_latency::total 19970.732203                       # average overall miss latency
system.cpu.dcache.blocked_cycles::no_mshrs            0                       # number of cycles access was blocked
system.cpu.dcache.blocked_cycles::no_targets            0                       # number of cycles access was blocked
system.cpu.dcache.blocked::no_mshrs                 0                       # number of cycles access was blocked
system.cpu.dcache.blocked::no_targets               0                       # number of cycles access was blocked
system.cpu.dcache.avg_blocked_cycles::no_mshrs          nan                       # average number of cycles each access was blocked
system.cpu.dcache.avg_blocked_cycles::no_targets          nan                       # average number of cycles each access was blocked
system.cpu.dcache.writebacks::writebacks      2654244                       # number of writebacks
system.cpu.dcache.writebacks::total           2654244                       # number of writebacks
system.cpu.dcache.ReadReq_mshr_misses::cpu.data      3409565                       # number of ReadReq MSHR misses
system.cpu.dcache.ReadReq_mshr_misses::total      3409565                       # number of ReadReq MSHR misses
system.cpu.dcache.WriteReq_mshr_misses::cpu.data       252002                       # number of WriteReq MSHR misses
system.cpu.dcache.WriteReq_mshr_misses::total       252002                       # number of WriteReq MSHR misses
system.cpu.dcache.demand_mshr_misses::cpu.data      3661567                       # number of demand (read+write) MSHR misses
system.cpu.dcache.demand_mshr_misses::total      3661567                       # number of demand (read+write) MSHR misses
system.cpu.dcache.overall_mshr_misses::cpu.data      3661567                       # number of overall MSHR misses
system.cpu.dcache.overall_mshr_misses::total      3661567                       # number of overall MSHR misses
system.cpu.dcache.ReadReq_mshr_miss_latency::cpu.data  65514823000                       # number of ReadReq MSHR miss cycles
system.cpu.dcache.ReadReq_mshr_miss_latency::total  65514823000                       # number of ReadReq MSHR miss cycles
system.cpu.dcache.WriteReq_mshr_miss_latency::cpu.data   3947784000                       # number of WriteReq MSHR miss cycles
system.cpu.dcache.WriteReq_mshr_miss_latency::total   3947784000                       # number of WriteReq MSHR miss cycles
system.cpu.dcache.demand_mshr_miss_latency::cpu.data  69462607000                       # number of demand (read+write) MSHR miss cycles
system.cpu.dcache.demand_mshr_miss_latency::total  69462607000                       # number of demand (read+write) MSHR miss cycles
system.cpu.dcache.overall_mshr_miss_latency::cpu.data  69462607000                       # number of overall MSHR miss cycles
system.cpu.dcache.overall_mshr_miss_latency::total  69462607000                       # number of overall MSHR miss cycles
system.cpu.dcache.ReadReq_mshr_miss_rate::cpu.data     0.374264                       # mshr miss rate for ReadReq accesses
system.cpu.dcache.ReadReq_mshr_miss_rate::total     0.374264                       # mshr miss rate for ReadReq accesses
system.cpu.dcache.WriteReq_mshr_miss_rate::cpu.data     0.051827                       # mshr miss rate for WriteReq accesses
system.cpu.dcache.WriteReq_mshr_miss_rate::total     0.051827                       # mshr miss rate for WriteReq accesses
system.cpu.dcache.demand_mshr_miss_rate::cpu.data     0.262056                       # mshr miss rate for demand accesses
system.cpu.dcache.demand_mshr_miss_rate::total     0.262056                       # mshr miss rate for demand accesses
system.cpu.dcache.overall_mshr_miss_rate::cpu.data     0.262056                       # mshr miss rate for overall accesses
system.cpu.dcache.overall_mshr_miss_rate::total     0.262056                       # mshr miss rate for overall accesses
system.cpu.dcache.ReadReq_avg_mshr_miss_latency::cpu.data 19215.009246                       # average ReadReq mshr miss latency
system.cpu.dcache.ReadReq_avg_mshr_miss_latency::total 19215.009246                       # average ReadReq mshr miss latency
system.cpu.dcache.WriteReq_avg_mshr_miss_latency::cpu.data 15665.685193                       # average WriteReq mshr miss latency
system.cpu.dcache.WriteReq_avg_mshr_miss_latency::total 15665.685193                       # average WriteReq mshr miss latency
system.cpu.dcache.demand_avg_mshr_miss_latency::cpu.data 18970.732203                       # average overall mshr miss latency
system.cpu.dcache.demand_avg_mshr_miss_latency::total 18970.732203                       # average overall mshr miss latency
system.cpu.dcache.overall_avg_mshr_miss_latency::cpu.data 18970.732203                       # average overall mshr miss latency
system.cpu.dcache.overall_avg_mshr_miss_latency::total 18970.732203                       # average overall mshr miss latency
system.cpu.icache.tags.pwrStateResidencyTicks::UNDEFINED 151646183500                       # Cumulative time (in ticks) in various power states
system.cpu.icache.tags.replacements           1978142                       # number of replacements
system.cpu.icache.tags.tagsinuse           127.981835                       # Cycle average of tags in use
system.cpu.icache.tags.total_refs            41835747                       # Total number of references to valid blocks.
system.cpu.icache.tags.sampled_refs           1978270                       # Sample count of references to valid blocks.
system.cpu.icache.tags.avg_refs             21.147643                       # Average number of references to valid blocks.
system.cpu.icache.tags.warmup_cycle          96178500                       # Cycle when the warmup percentage was hit.
system.cpu.icache.tags.occ_blocks::cpu.inst   127.981835                       # Average occupied blocks per requestor
system.cpu.icache.tags.occ_percent::cpu.inst     0.999858                       # Average percentage of cache occupancy
system.cpu.icache.tags.occ_percent::total     0.999858                       # Average percentage of cache occupancy
system.cpu.icache.tags.occ_task_id_blocks::1024          128                       # Occupied blocks per task id
system.cpu.icache.tags.age_task_id_blocks_1024::0           57                       # Occupied blocks per task id
system.cpu.icache.tags.age_task_id_blocks_1024::1           59                       # Occupied blocks per task id
system.cpu.icache.tags.age_task_id_blocks_1024::3            1                       # Occupied blocks per task id
system.cpu.icache.tags.age_task_id_blocks_1024::4           11                       # Occupied blocks per task id
system.cpu.icache.tags.occ_task_id_percent::1024            1                       # Percentage of cache occupancy per task id
system.cpu.icache.tags.tag_accesses          45792287                       # Number of tag accesses
system.cpu.icache.tags.data_accesses         45792287                       # Number of data accesses
system.cpu.icache.pwrStateResidencyTicks::UNDEFINED 151646183500                       # Cumulative time (in ticks) in various power states
system.cpu.icache.ReadReq_hits::cpu.inst     41835747                       # number of ReadReq hits
system.cpu.icache.ReadReq_hits::total        41835747                       # number of ReadReq hits
system.cpu.icache.demand_hits::cpu.inst      41835747                       # number of demand (read+write) hits
system.cpu.icache.demand_hits::total         41835747                       # number of demand (read+write) hits
system.cpu.icache.overall_hits::cpu.inst     41835747                       # number of overall hits
system.cpu.icache.overall_hits::total        41835747                       # number of overall hits
system.cpu.icache.ReadReq_misses::cpu.inst      1978270                       # number of ReadReq misses
system.cpu.icache.ReadReq_misses::total       1978270                       # number of ReadReq misses
system.cpu.icache.demand_misses::cpu.inst      1978270                       # number of demand (read+write) misses
system.cpu.icache.demand_misses::total        1978270                       # number of demand (read+write) misses
system.cpu.icache.overall_misses::cpu.inst      1978270                       # number of overall misses
system.cpu.icache.overall_misses::total       1978270                       # number of overall misses
system.cpu.icache.ReadReq_miss_latency::cpu.inst  26252567000                       # number of ReadReq miss cycles
system.cpu.icache.ReadReq_miss_latency::total  26252567000                       # number of ReadReq miss cycles
system.cpu.icache.demand_miss_latency::cpu.inst  26252567000                       # number of demand (read+write) miss cycles
system.cpu.icache.demand_miss_latency::total  26252567000                       # number of demand (read+write) miss cycles
system.cpu.icache.overall_miss_latency::cpu.inst  26252567000                       # number of overall miss cycles
system.cpu.icache.overall_miss_latency::total  26252567000                       # number of overall miss cycles
system.cpu.icache.ReadReq_accesses::cpu.inst     43814017                       # number of ReadReq accesses(hits+misses)
system.cpu.icache.ReadReq_accesses::total     43814017                       # number of ReadReq accesses(hits+misses)
system.cpu.icache.demand_accesses::cpu.inst     43814017                       # number of demand (read+write) accesses
system.cpu.icache.demand_accesses::total     43814017                       # number of demand (read+write) accesses
system.cpu.icache.overall_accesses::cpu.inst     43814017                       # number of overall (read+write) accesses
system.cpu.icache.overall_accesses::total     43814017                       # number of overall (read+write) accesses
system.cpu.icache.ReadReq_miss_rate::cpu.inst     0.045152                       # miss rate for ReadReq accesses
system.cpu.icache.ReadReq_miss_rate::total     0.045152                       # miss rate for ReadReq accesses
system.cpu.icache.demand_miss_rate::cpu.inst     0.045152                       # miss rate for demand accesses
system.cpu.icache.demand_miss_rate::total     0.045152                       # miss rate for demand accesses
system.cpu.icache.overall_miss_rate::cpu.inst     0.045152                       # miss rate for overall accesses
system.cpu.icache.overall_miss_rate::total     0.045152                       # miss rate for overall accesses
system.cpu.icache.ReadReq_avg_miss_latency::cpu.inst 13270.467125                       # average ReadReq miss latency
system.cpu.icache.ReadReq_avg_miss_latency::total 13270.467125                       # average ReadReq miss latency
system.cpu.icache.demand_avg_miss_latency::cpu.inst 13270.467125                       # average overall miss latency
system.cpu.icache.demand_avg_miss_latency::total 13270.467125                       # average overall miss latency
system.cpu.icache.overall_avg_miss_latency::cpu.inst 13270.467125                       # average overall miss latency
system.cpu.icache.overall_avg_miss_latency::total 13270.467125                       # average overall miss latency
system.cpu.icache.blocked_cycles::no_mshrs            0                       # number of cycles access was blocked
system.cpu.icache.blocked_cycles::no_targets            0                       # number of cycles access was blocked
system.cpu.icache.blocked::no_mshrs                 0                       # number of cycles access was blocked
system.cpu.icache.blocked::no_targets               0                       # number of cycles access was blocked
system.cpu.icache.avg_blocked_cycles::no_mshrs          nan                       # average number of cycles each access was blocked
system.cpu.icache.avg_blocked_cycles::no_targets          nan                       # average number of cycles each access was blocked
system.cpu.icache.writebacks::writebacks      1978142                       # number of writebacks
system.cpu.icache.writebacks::total           1978142                       # number of writebacks
system.cpu.icache.ReadReq_mshr_misses::cpu.inst      1978270                       # number of ReadReq MSHR misses
system.cpu.icache.ReadReq_mshr_misses::total      1978270                       # number of ReadReq MSHR misses
system.cpu.icache.demand_mshr_misses::cpu.inst      1978270                       # number of demand (read+write) MSHR misses
system.cpu.icache.demand_mshr_misses::total      1978270                       # number of demand (read+write) MSHR misses
system.cpu.icache.overall_mshr_misses::cpu.inst      1978270                       # number of overall MSHR misses
system.cpu.icache.overall_mshr_misses::total      1978270                       # number of overall MSHR misses
system.cpu.icache.ReadReq_mshr_miss_latency::cpu.inst  24274297000                       # number of ReadReq MSHR miss cycles
system.cpu.icache.ReadReq_mshr_miss_latency::total  24274297000                       # number of ReadReq MSHR miss cycles
system.cpu.icache.demand_mshr_miss_latency::cpu.inst  24274297000                       # number of demand (read+write) MSHR miss cycles
system.cpu.icache.demand_mshr_miss_latency::total  24274297000                       # number of demand (read+write) MSHR miss cycles
system.cpu.icache.overall_mshr_miss_latency::cpu.inst  24274297000                       # number of overall MSHR miss cycles
system.cpu.icache.overall_mshr_miss_latency::total  24274297000                       # number of overall MSHR miss cycles
system.cpu.icache.ReadReq_mshr_miss_rate::cpu.inst     0.045152                       # mshr miss rate for ReadReq accesses
system.cpu.icache.ReadReq_mshr_miss_rate::total     0.045152                       # mshr miss rate for ReadReq accesses
[...]
system.l2.ReadExReq_accesses::total            252002                       # number of ReadExReq accesses(hits+misses)
system.l2.ReadCleanReq_accesses::cpu.inst      1978270                       # number of ReadCleanReq accesses(hits+misses)
system.l2.ReadCleanReq_accesses::total        1978270                       # number of ReadCleanReq accesses(hits+misses)
system.l2.ReadSharedReq_accesses::cpu.data      3409565                       # number of ReadSharedReq accesses(hits+misses)
system.l2.ReadSharedReq_accesses::total       3409565                       # number of ReadSharedReq accesses(hits+misses)
system.l2.demand_accesses::cpu.inst           1978270                       # number of demand (read+write) accesses
system.l2.demand_accesses::cpu.data           3661567                       # number of demand (read+write) accesses
system.l2.demand_accesses::total              5639837                       # number of demand (read+write) accesses
system.l2.overall_accesses::cpu.inst          1978270                       # number of overall (read+write) accesses
system.l2.overall_accesses::cpu.data          3661567                       # number of overall (read+write) accesses
system.l2.overall_accesses::total             5639837                       # number of overall (read+write) accesses
system.l2.ReadExReq_miss_rate::cpu.data      0.023825                       # miss rate for ReadExReq accesses
system.l2.ReadExReq_miss_rate::total         0.023825                       # miss rate for ReadExReq accesses
system.l2.ReadCleanReq_miss_rate::cpu.inst     0.003674                       # miss rate for ReadCleanReq accesses
system.l2.ReadCleanReq_miss_rate::total      0.003674                       # miss rate for ReadCleanReq accesses
system.l2.ReadSharedReq_miss_rate::cpu.data     0.094605                       # miss rate for ReadSharedReq accesses
system.l2.ReadSharedReq_miss_rate::total     0.094605                       # miss rate for ReadSharedReq accesses
system.l2.demand_miss_rate::cpu.inst         0.003674                       # miss rate for demand accesses
system.l2.demand_miss_rate::cpu.data         0.089733                       # miss rate for demand accesses
system.l2.demand_miss_rate::total            0.059547                       # miss rate for demand accesses
system.l2.overall_miss_rate::cpu.inst        0.003674                       # miss rate for overall accesses
system.l2.overall_miss_rate::cpu.data        0.089733                       # miss rate for overall accesses
system.l2.overall_miss_rate::total           0.059547                       # miss rate for overall accesses
system.l2.ReadExReq_avg_miss_latency::cpu.data 164357.428381                       # average ReadExReq miss latency
system.l2.ReadExReq_avg_miss_latency::total 164357.428381                       # average ReadExReq miss latency
system.l2.ReadCleanReq_avg_miss_latency::cpu.inst 82699.339662                       # average ReadCleanReq miss latency
system.l2.ReadCleanReq_avg_miss_latency::total 82699.339662                       # average ReadCleanReq miss latency
system.l2.ReadSharedReq_avg_miss_latency::cpu.data 86764.024479                       # average ReadSharedReq miss latency
system.l2.ReadSharedReq_avg_miss_latency::total 86764.024479                       # average ReadSharedReq miss latency
system.l2.demand_avg_miss_latency::cpu.inst 82699.339662                       # average overall miss latency
system.l2.demand_avg_miss_latency::cpu.data 88181.919864                       # average overall miss latency
system.l2.demand_avg_miss_latency::total 88063.251487                       # average overall miss latency
system.l2.overall_avg_miss_latency::cpu.inst 82699.339662                       # average overall miss latency
system.l2.overall_avg_miss_latency::cpu.data 88181.919864                       # average overall miss latency
system.l2.overall_avg_miss_latency::total 88063.251487                       # average overall miss latency
system.l2.blocked_cycles::no_mshrs                  0                       # number of cycles access was blocked
system.l2.blocked_cycles::no_targets                0                       # number of cycles access was blocked
system.l2.blocked::no_mshrs                         0                       # number of cycles access was blocked
system.l2.blocked::no_targets                       0                       # number of cycles access was blocked
system.l2.avg_blocked_cycles::no_mshrs            nan                       # average number of cycles each access was blocked
system.l2.avg_blocked_cycles::no_targets          nan                       # average number of cycles each access was blocked
system.l2.writebacks::writebacks                22276                       # number of writebacks
system.l2.writebacks::total                     22276                       # number of writebacks
system.l2.CleanEvict_mshr_misses::writebacks            6                       # number of CleanEvict MSHR misses
system.l2.CleanEvict_mshr_misses::total             6                       # number of CleanEvict MSHR misses
system.l2.ReadExReq_mshr_misses::cpu.data         6004                       # number of ReadExReq MSHR misses
system.l2.ReadExReq_mshr_misses::total           6004                       # number of ReadExReq MSHR misses
system.l2.ReadCleanReq_mshr_misses::cpu.inst         7269                       # number of ReadCleanReq MSHR misses
system.l2.ReadCleanReq_mshr_misses::total         7269                       # number of ReadCleanReq MSHR misses
system.l2.ReadSharedReq_mshr_misses::cpu.data       322561                       # number of ReadSharedReq MSHR misses
system.l2.ReadSharedReq_mshr_misses::total       322561                       # number of ReadSharedReq MSHR misses
system.l2.demand_mshr_misses::cpu.inst           7269                       # number of demand (read+write) MSHR misses
system.l2.demand_mshr_misses::cpu.data         328565                       # number of demand (read+write) MSHR misses
system.l2.demand_mshr_misses::total            335834                       # number of demand (read+write) MSHR misses
system.l2.overall_mshr_misses::cpu.inst          7269                       # number of overall MSHR misses
system.l2.overall_mshr_misses::cpu.data        328565                       # number of overall MSHR misses
system.l2.overall_mshr_misses::total           335834                       # number of overall MSHR misses
system.l2.ReadExReq_mshr_miss_latency::cpu.data    926762000                       # number of ReadExReq MSHR miss cycles
system.l2.ReadExReq_mshr_miss_latency::total    926762000                       # number of ReadExReq MSHR miss cycles
system.l2.ReadCleanReq_mshr_miss_latency::cpu.inst    528451500                       # number of ReadCleanReq MSHR miss cycles
system.l2.ReadCleanReq_mshr_miss_latency::total    528451500                       # number of ReadCleanReq MSHR miss cycles
system.l2.ReadSharedReq_mshr_miss_latency::cpu.data  24761080500                       # number of ReadSharedReq MSHR miss cycles
system.l2.ReadSharedReq_mshr_miss_latency::total  24761080500                       # number of ReadSharedReq MSHR miss cycles
system.l2.demand_mshr_miss_latency::cpu.inst    528451500                       # number of demand (read+write) MSHR miss cycles
system.l2.demand_mshr_miss_latency::cpu.data  25687842500                       # number of demand (read+write) MSHR miss cycles
system.l2.demand_mshr_miss_latency::total  26216294000                       # number of demand (read+write) MSHR miss cycles
system.l2.overall_mshr_miss_latency::cpu.inst    528451500                       # number of overall MSHR miss cycles
system.l2.overall_mshr_miss_latency::cpu.data  25687842500                       # number of overall MSHR miss cycles
system.l2.overall_mshr_miss_latency::total  26216294000                       # number of overall MSHR miss cycles
system.l2.CleanEvict_mshr_miss_rate::writebacks          inf                       # mshr miss rate for CleanEvict accesses
system.l2.CleanEvict_mshr_miss_rate::total          inf                       # mshr miss rate for CleanEvict accesses
system.l2.ReadExReq_mshr_miss_rate::cpu.data     0.023825                       # mshr miss rate for ReadExReq accesses
system.l2.ReadExReq_mshr_miss_rate::total     0.023825                       # mshr miss rate for ReadExReq accesses
system.l2.ReadCleanReq_mshr_miss_rate::cpu.inst     0.003674                       # mshr miss rate for ReadCleanReq accesses
system.l2.ReadCleanReq_mshr_miss_rate::total     0.003674                       # mshr miss rate for ReadCleanReq accesses
system.l2.ReadSharedReq_mshr_miss_rate::cpu.data     0.094605                       # mshr miss rate for ReadSharedReq accesses
system.l2.ReadSharedReq_mshr_miss_rate::total     0.094605                       # mshr miss rate for ReadSharedReq accesses
system.l2.demand_mshr_miss_rate::cpu.inst     0.003674                       # mshr miss rate for demand accesses
system.l2.demand_mshr_miss_rate::cpu.data     0.089733                       # mshr miss rate for demand accesses
system.l2.demand_mshr_miss_rate::total       0.059547                       # mshr miss rate for demand accesses
system.l2.overall_mshr_miss_rate::cpu.inst     0.003674                       # mshr miss rate for overall accesses
system.l2.overall_mshr_miss_rate::cpu.data     0.089733                       # mshr miss rate for overall accesses
system.l2.overall_mshr_miss_rate::total      0.059547                       # mshr miss rate for overall accesses
system.l2.ReadExReq_avg_mshr_miss_latency::cpu.data 154357.428381                       # average ReadExReq mshr miss latency
system.l2.ReadExReq_avg_mshr_miss_latency::total 154357.428381                       # average ReadExReq mshr miss latency
system.l2.ReadCleanReq_avg_mshr_miss_latency::cpu.inst 72699.339662                       # average ReadCleanReq mshr miss latency
system.l2.ReadCleanReq_avg_mshr_miss_latency::total 72699.339662                       # average ReadCleanReq mshr miss latency
system.l2.ReadSharedReq_avg_mshr_miss_latency::cpu.data 76764.024479                       # average ReadSharedReq mshr miss latency
system.l2.ReadSharedReq_avg_mshr_miss_latency::total 76764.024479                       # average ReadSharedReq mshr miss latency
system.l2.demand_avg_mshr_miss_latency::cpu.inst 72699.339662                       # average overall mshr miss latency
system.l2.demand_avg_mshr_miss_latency::cpu.data 78181.919864                       # average overall mshr miss latency
system.l2.demand_avg_mshr_miss_latency::total 78063.251487                       # average overall mshr miss latency
system.l2.overall_avg_mshr_miss_latency::cpu.inst 72699.339662                       # average overall mshr miss latency
system.l2.overall_avg_mshr_miss_latency::cpu.data 78181.919864                       # average overall mshr miss latency
system.l2.overall_avg_mshr_miss_latency::total 78063.251487                       # average overall mshr miss latency
system.membus.snoop_filter.tot_requests        670632                       # Total number of requests made to the snoop filter.
system.membus.snoop_filter.hit_single_requests       334798                       # Number of requests hitting in the snoop filter with a single holder of the requested data.
system.membus.snoop_filter.hit_multi_requests            0                       # Number of requests hitting in the snoop filter with multiple (>1) holders of the requested data.
system.membus.snoop_filter.tot_snoops               0                       # Total number of snoops made to the snoop filter.
system.membus.snoop_filter.hit_single_snoops            0                       # Number of snoops hitting in the snoop filter with a single holder of the requested data.
system.membus.snoop_filter.hit_multi_snoops            0                       # Number of snoops hitting in the snoop filter with multiple (>1) holders of the requested data.
system.membus.pwrStateResidencyTicks::UNDEFINED 151646183500                       # Cumulative time (in ticks) in various power states
system.membus.trans_dist::ReadResp             329830                       # Transaction distribution
system.membus.trans_dist::WritebackDirty        22276                       # Transaction distribution
system.membus.trans_dist::CleanEvict           312522                       # Transaction distribution
system.membus.trans_dist::ReadExReq              6004                       # Transaction distribution
system.membus.trans_dist::ReadExResp             6004                       # Transaction distribution
system.membus.trans_dist::ReadSharedReq        329830                       # Transaction distribution
system.membus.pkt_count_system.l2.mem_side::system.mem_ctrls.port      1006466                       # Packet count per connected master and slave (bytes)
system.membus.pkt_count::total                1006466                       # Packet count per connected master and slave (bytes)
system.membus.pkt_size_system.l2.mem_side::system.mem_ctrls.port      5729760                       # Cumulative packet size per connected master and slave (bytes)
system.membus.pkt_size::total                 5729760                       # Cumulative packet size per connected master and slave (bytes)
system.membus.snoops                                0                       # Total snoops (count)
system.membus.snoopTraffic                          0                       # Total snoop traffic (bytes)
system.membus.snoop_fanout::samples            335834                       # Request fanout histogram
system.membus.snoop_fanout::mean                    0                       # Request fanout histogram
system.membus.snoop_fanout::stdev                   0                       # Request fanout histogram
system.membus.snoop_fanout::underflows              0      0.00%      0.00% # Request fanout histogram
system.membus.snoop_fanout::0                  335834    100.00%    100.00% # Request fanout histogram
system.membus.snoop_fanout::1                       0      0.00%    100.00% # Request fanout histogram
system.membus.snoop_fanout::overflows               0      0.00%    100.00% # Request fanout histogram
system.membus.snoop_fanout::min_value               0                       # Request fanout histogram
system.membus.snoop_fanout::max_value               0                       # Request fanout histogram
system.membus.snoop_fanout::total              335834                       # Request fanout histogram
system.membus.reqLayer0.occupancy           693170500                       # Layer occupancy (ticks)
system.membus.reqLayer0.utilization               0.5                       # Layer utilization (%)
system.membus.respLayer1.occupancy          765630000                       # Layer occupancy (ticks)
system.membus.respLayer1.utilization              0.5                       # Layer utilization (%)
system.tol2bus.snoop_filter.tot_requests     11279482                       # Total number of requests made to the snoop filter.
system.tol2bus.snoop_filter.hit_single_requests      5639645                       # Number of requests hitting in the snoop filter with a single holder of the requested data.
system.tol2bus.snoop_filter.hit_multi_requests        10425                       # Number of requests hitting in the snoop filter with multiple (>1) holders of the requested data.
system.tol2bus.snoop_filter.tot_snoops           2527                       # Total number of snoops made to the snoop filter.
system.tol2bus.snoop_filter.hit_single_snoops         2527                       # Number of snoops hitting in the snoop filter with a single holder of the requested data.
system.tol2bus.snoop_filter.hit_multi_snoops            0                       # Number of snoops hitting in the snoop filter with multiple (>1) holders of the requested data.
system.tol2bus.pwrStateResidencyTicks::UNDEFINED 151646183500                       # Cumulative time (in ticks) in various power states
system.tol2bus.trans_dist::ReadResp           5387835                       # Transaction distribution
system.tol2bus.trans_dist::WritebackDirty      2676520                       # Transaction distribution
system.tol2bus.trans_dist::WritebackClean      1978142                       # Transaction distribution
system.tol2bus.trans_dist::CleanEvict         1322302                       # Transaction distribution
system.tol2bus.trans_dist::ReadExReq           252002                       # Transaction distribution
system.tol2bus.trans_dist::ReadExResp          252002                       # Transaction distribution
system.tol2bus.trans_dist::ReadCleanReq       1978270                       # Transaction distribution
system.tol2bus.trans_dist::ReadSharedReq      3409565                       # Transaction distribution
system.tol2bus.pkt_count_system.cpu.icache.mem_side::system.l2.cpu_side      5934682                       # Packet count per connected master and slave (bytes)
system.tol2bus.pkt_count_system.cpu.dcache.mem_side::system.l2.cpu_side     10984637                       # Packet count per connected master and slave (bytes)
system.tol2bus.pkt_count::total              16919319                       # Packet count per connected master and slave (bytes)
system.tol2bus.pkt_size_system.cpu.icache.mem_side::system.l2.cpu_side     63302592                       # Cumulative packet size per connected master and slave (bytes)
system.tol2bus.pkt_size_system.cpu.dcache.mem_side::system.l2.cpu_side    101052976                       # Cumulative packet size per connected master and slave (bytes)
system.tol2bus.pkt_size::total              164355568                       # Cumulative packet size per connected master and slave (bytes)
system.tol2bus.snoops                          337319                       # Total snoops (count)
system.tol2bus.snoopTraffic                    356416                       # Total snoop traffic (bytes)
system.tol2bus.snoop_fanout::samples          5977156                       # Request fanout histogram
system.tol2bus.snoop_fanout::mean            0.002167                       # Request fanout histogram
system.tol2bus.snoop_fanout::stdev           0.046500                       # Request fanout histogram
system.tol2bus.snoop_fanout::underflows             0      0.00%      0.00% # Request fanout histogram
system.tol2bus.snoop_fanout::0                5964204     99.78%     99.78% # Request fanout histogram
system.tol2bus.snoop_fanout::1                  12952      0.22%    100.00% # Request fanout histogram
system.tol2bus.snoop_fanout::2                      0      0.00%    100.00% # Request fanout histogram
system.tol2bus.snoop_fanout::overflows              0      0.00%    100.00% # Request fanout histogram
system.tol2bus.snoop_fanout::min_value              0                       # Request fanout histogram
system.tol2bus.snoop_fanout::max_value              1                       # Request fanout histogram
system.tol2bus.snoop_fanout::total            5977156                       # Request fanout histogram
system.tol2bus.reqLayer0.occupancy         7955934000                       # Layer occupancy (ticks)
system.tol2bus.reqLayer0.utilization              5.2                       # Layer utilization (%)
system.tol2bus.respLayer0.occupancy        1978270000                       # Layer occupancy (ticks)
system.tol2bus.respLayer0.utilization             1.3                       # Layer utilization (%)
system.tol2bus.respLayer1.occupancy        3661567000                       # Layer occupancy (ticks)
system.tol2bus.respLayer1.utilization             2.4                       # Layer utilization (%)

---------- End Simulation Statistics   ----------
